/*---------------------------------------------------------------------------*\
| =========                 |                                                 |
| \\      /  F ield         | OpenFOAM: The Open Source CFD Toolbox           |
|  \\    /   O peration     | Version:  v1906                                 |
|   \\  /    A nd           | Web:      www.OpenFOAM.com                      |
|    \\/     M anipulation  |                                                 |
\*---------------------------------------------------------------------------*/
Build  : v1906 OPENFOAM=1906
Arch   : "LSB;label=32;scalar=64"
Exec   : createPatch -overwrite
Date   : Jul 22 2019
Time   : 11:07:43
Host   : DESKTOP-9S60IA4
PID    : 1475
I/O    : uncollated
Case   : /home/theodore_ong/GitHub_software/thin_pipeflow_snappyHexMesh/snappy_pipe
nProcs : 1
trapFpe: Floating point exception trapping enabled (FOAM_SIGFPE).
fileModificationChecking : Monitoring run-time modified files using timeStampMaster (fileModificationSkew 10)
allowSystemOperations : Allowing user-supplied system call operations

// * * * * * * * * * * * * * * * * * * * * * * * * * * * * * * * * * * * * * //
Create time

Create polyMesh for time = 0

Reading "system/createPatchDict"

Patch 'topPatch' already exists.  Only moving patch faces - type will remain the same
Patch 'wall' already exists.  Only moving patch faces - type will remain the same
Patch 'bottomPatch' already exists.  Only moving patch faces - type will remain the same

