/*---------------------------------------------------------------------------*\
| =========                 |                                                 |
| \\      /  F ield         | OpenFOAM: The Open Source CFD Toolbox           |
|  \\    /   O peration     | Version:  v1906                                 |
|   \\  /    A nd           | Web:      www.OpenFOAM.com                      |
|    \\/     M anipulation  |                                                 |
\*---------------------------------------------------------------------------*/
Build  : v1906 OPENFOAM=1906
Arch   : "LSB;label=32;scalar=64"
Exec   : pimpleFoam -parallel
Date   : Feb 05 2020
Time   : 10:14:37
Host   : LAPTOP-FK3MEHTI
PID    : 1956
I/O    : uncollated
Case   : /home/theodore_ong/GitHub_OpenFoam_workspace/thin_pipeflow_snappyHexMesh/pimpleFoam_snappyPipe
nProcs : 4
Hosts  :
(
    (LAPTOP-FK3MEHTI 4)
)
Pstream initialized with:
    floatTransfer      : 0
    nProcsSimpleSum    : 0
    commsType          : nonBlocking
    polling iterations : 0
trapFpe: Floating point exception trapping enabled (FOAM_SIGFPE).
fileModificationChecking : Monitoring run-time modified files using timeStampMaster (fileModificationSkew 10)
allowSystemOperations : Allowing user-supplied system call operations

// * * * * * * * * * * * * * * * * * * * * * * * * * * * * * * * * * * * * * //
Create time

Create mesh for time = 400


PIMPLE: max iterations = 1000
    field U	: relTol 0, tolerance 0.001
    field p	: relTol 0, tolerance 0.05

Reading field p

Reading field U

Reading/calculating face flux field phi

Selecting incompressible transport model Newtonian
Selecting turbulence model type RAS
Selecting RAS turbulence model kEpsilon
RAS
{
    RASModel        kEpsilon;
    turbulence      on;
    printCoeffs     on;
    Cmu             0.09;
    C1              1.44;
    C2              1.92;
    C3              0;
    sigmak          1;
    sigmaEps        1.3;
}

No MRF models present

No finite volume options present
Courant Number mean: 1.24817 max: 9.94663

Starting time loop

Courant Number mean: 1.24817 max: 9.94663
deltaT = 0.847458
Time = 400.847

PIMPLE: iteration 1
smoothSolver:  Solving for Ux, Initial residual = 0.00333447, Final residual = 8.10503e-06, No Iterations 2
smoothSolver:  Solving for Uy, Initial residual = 0.00333531, Final residual = 8.10877e-06, No Iterations 2
smoothSolver:  Solving for Uz, Initial residual = 1.52511e-05, Final residual = 6.07416e-07, No Iterations 1
DICPCG:  Solving for p, Initial residual = 0.11959, Final residual = 0.00472592, No Iterations 2
DICPCG:  Solving for p, Initial residual = 0.00423457, Final residual = 9.11081e-07, No Iterations 455
time step continuity errors : sum local = 8.47428e-10, global = 1.71058e-13, cumulative = -1.5319e-08
PIMPLE: iteration 2
smoothSolver:  Solving for Ux, Initial residual = 0.00225736, Final residual = 5.4534e-06, No Iterations 2
smoothSolver:  Solving for Uy, Initial residual = 0.00225914, Final residual = 5.45733e-06, No Iterations 2
smoothSolver:  Solving for Uz, Initial residual = 1.59376e-05, Final residual = 4.39524e-07, No Iterations 1
DICPCG:  Solving for p, Initial residual = 0.0655026, Final residual = 0.00223196, No Iterations 2
DICPCG:  Solving for p, Initial residual = 0.00209804, Final residual = 8.62249e-07, No Iterations 455
time step continuity errors : sum local = 8.11034e-10, global = 2.42101e-12, cumulative = -1.53166e-08
PIMPLE: iteration 3
smoothSolver:  Solving for Ux, Initial residual = 0.00308458, Final residual = 6.93296e-06, No Iterations 2
smoothSolver:  Solving for Uy, Initial residual = 0.00308406, Final residual = 6.93594e-06, No Iterations 2
smoothSolver:  Solving for Uz, Initial residual = 1.83261e-05, Final residual = 5.18316e-07, No Iterations 1
DICPCG:  Solving for p, Initial residual = 0.0350224, Final residual = 0.000710947, No Iterations 2
DICPCG:  Solving for p, Initial residual = 0.000687872, Final residual = 7.6734e-07, No Iterations 456
time step continuity errors : sum local = 7.20766e-10, global = 3.51325e-12, cumulative = -1.53131e-08
PIMPLE: iteration 4
smoothSolver:  Solving for Ux, Initial residual = 0.00293306, Final residual = 6.33641e-06, No Iterations 2
smoothSolver:  Solving for Uy, Initial residual = 0.00293237, Final residual = 6.33911e-06, No Iterations 2
smoothSolver:  Solving for Uz, Initial residual = 1.34026e-05, Final residual = 3.97269e-07, No Iterations 1
DICPCG:  Solving for p, Initial residual = 0.0193188, Final residual = 0.000884085, No Iterations 2
DICPCG:  Solving for p, Initial residual = 0.000869688, Final residual = 9.26541e-07, No Iterations 458
time step continuity errors : sum local = 8.64316e-10, global = 1.16682e-11, cumulative = -1.53014e-08
PIMPLE: iteration 5
smoothSolver:  Solving for Ux, Initial residual = 0.00230461, Final residual = 4.80097e-06, No Iterations 2
smoothSolver:  Solving for Uy, Initial residual = 0.00230451, Final residual = 4.80267e-06, No Iterations 2
smoothSolver:  Solving for Uz, Initial residual = 7.12619e-06, Final residual = 7.12619e-06, No Iterations 0
DICPCG:  Solving for p, Initial residual = 0.0119289, Final residual = 0.000469853, No Iterations 3
DICPCG:  Solving for p, Initial residual = 0.000466398, Final residual = 8.97469e-07, No Iterations 457
time step continuity errors : sum local = 8.30806e-10, global = 1.23598e-11, cumulative = -1.52891e-08
PIMPLE: iteration 6
smoothSolver:  Solving for Ux, Initial residual = 0.00167423, Final residual = 3.31214e-06, No Iterations 2
smoothSolver:  Solving for Uy, Initial residual = 0.00167348, Final residual = 3.3126e-06, No Iterations 2
smoothSolver:  Solving for Uz, Initial residual = 3.37876e-06, Final residual = 3.37876e-06, No Iterations 0
DICPCG:  Solving for p, Initial residual = 0.00780123, Final residual = 0.000277687, No Iterations 3
DICPCG:  Solving for p, Initial residual = 0.000276924, Final residual = 8.33434e-07, No Iterations 453
time step continuity errors : sum local = 7.66981e-10, global = 6.99008e-12, cumulative = -1.52821e-08
PIMPLE: iteration 7
smoothSolver:  Solving for Ux, Initial residual = 0.00122518, Final residual = 2.32839e-06, No Iterations 2
smoothSolver:  Solving for Uy, Initial residual = 0.00122455, Final residual = 2.33054e-06, No Iterations 2
smoothSolver:  Solving for Uz, Initial residual = 2.69514e-06, Final residual = 2.69514e-06, No Iterations 0
DICPCG:  Solving for p, Initial residual = 0.00508142, Final residual = 0.000225478, No Iterations 2
DICPCG:  Solving for p, Initial residual = 0.000225353, Final residual = 9.72771e-07, No Iterations 449
time step continuity errors : sum local = 8.91962e-10, global = -7.97922e-12, cumulative = -1.52901e-08
PIMPLE: iteration 8
smoothSolver:  Solving for Ux, Initial residual = 0.000910553, Final residual = 1.77642e-06, No Iterations 2
smoothSolver:  Solving for Uy, Initial residual = 0.000910232, Final residual = 1.7763e-06, No Iterations 2
smoothSolver:  Solving for Uz, Initial residual = 2.20935e-06, Final residual = 2.20935e-06, No Iterations 0
DICPCG:  Solving for p, Initial residual = 0.00333442, Final residual = 0.000110771, No Iterations 2
DICPCG:  Solving for p, Initial residual = 0.000110805, Final residual = 9.69097e-07, No Iterations 445
time step continuity errors : sum local = 8.87049e-10, global = -1.11285e-12, cumulative = -1.52912e-08
PIMPLE: iteration 9
smoothSolver:  Solving for Ux, Initial residual = 0.00175153, Final residual = 6.1045e-06, No Iterations 7
smoothSolver:  Solving for Uy, Initial residual = 0.0017508, Final residual = 6.09773e-06, No Iterations 7
smoothSolver:  Solving for Uz, Initial residual = 4.0512e-06, Final residual = 4.0512e-06, No Iterations 0
DICPCG:  Solving for p, Initial residual = 0.103083, Final residual = 0.00261686, No Iterations 2
DICPCG:  Solving for p, Initial residual = 0.00290399, Final residual = 7.73032e-07, No Iterations 460
time step continuity errors : sum local = 1.45114e-09, global = -8.66327e-12, cumulative = -1.52998e-08
smoothSolver:  Solving for epsilon, Initial residual = 0.000112537, Final residual = 4.86138e-06, No Iterations 2
bounding epsilon, min: -2.4031e-06 max: 0.00036357 average: 7.12632e-06
smoothSolver:  Solving for k, Initial residual = 0.000144593, Final residual = 5.56979e-06, No Iterations 3
PIMPLE: converged in 9 iterations
ExecutionTime = 15.19 s  ClockTime = 15 s

Courant Number mean: 1.24817 max: 9.95421
deltaT = 0.847458
Time = 401.695

PIMPLE: iteration 1
smoothSolver:  Solving for Ux, Initial residual = 0.0034126, Final residual = 8.35612e-06, No Iterations 2
smoothSolver:  Solving for Uy, Initial residual = 0.00341153, Final residual = 8.33599e-06, No Iterations 2
smoothSolver:  Solving for Uz, Initial residual = 1.42903e-05, Final residual = 5.4274e-07, No Iterations 1
DICPCG:  Solving for p, Initial residual = 0.119741, Final residual = 0.00464067, No Iterations 2
DICPCG:  Solving for p, Initial residual = 0.00415841, Final residual = 8.75993e-07, No Iterations 459
time step continuity errors : sum local = 8.14694e-10, global = 3.5653e-13, cumulative = -1.52995e-08
PIMPLE: iteration 2
smoothSolver:  Solving for Ux, Initial residual = 0.00226377, Final residual = 5.43982e-06, No Iterations 2
smoothSolver:  Solving for Uy, Initial residual = 0.00226632, Final residual = 5.43887e-06, No Iterations 2
smoothSolver:  Solving for Uz, Initial residual = 1.59434e-05, Final residual = 4.24183e-07, No Iterations 1
DICPCG:  Solving for p, Initial residual = 0.065662, Final residual = 0.0021654, No Iterations 2
DICPCG:  Solving for p, Initial residual = 0.00203521, Final residual = 8.65103e-07, No Iterations 457
time step continuity errors : sum local = 8.13782e-10, global = 9.59616e-12, cumulative = -1.52899e-08
PIMPLE: iteration 3
smoothSolver:  Solving for Ux, Initial residual = 0.00307407, Final residual = 6.87437e-06, No Iterations 2
smoothSolver:  Solving for Uy, Initial residual = 0.00307804, Final residual = 6.88147e-06, No Iterations 2
smoothSolver:  Solving for Uz, Initial residual = 1.83327e-05, Final residual = 5.11268e-07, No Iterations 1
DICPCG:  Solving for p, Initial residual = 0.0350553, Final residual = 0.000695577, No Iterations 2
DICPCG:  Solving for p, Initial residual = 0.000672907, Final residual = 8.27517e-07, No Iterations 455
time step continuity errors : sum local = 7.77426e-10, global = 5.61532e-12, cumulative = -1.52843e-08
PIMPLE: iteration 4
smoothSolver:  Solving for Ux, Initial residual = 0.00292563, Final residual = 6.28184e-06, No Iterations 2
smoothSolver:  Solving for Uy, Initial residual = 0.00292913, Final residual = 6.2885e-06, No Iterations 2
smoothSolver:  Solving for Uz, Initial residual = 1.34149e-05, Final residual = 3.94129e-07, No Iterations 1
DICPCG:  Solving for p, Initial residual = 0.0192583, Final residual = 0.00090003, No Iterations 2
DICPCG:  Solving for p, Initial residual = 0.000885281, Final residual = 8.48503e-07, No Iterations 456
time step continuity errors : sum local = 7.91692e-10, global = 9.1695e-12, cumulative = -1.52751e-08
PIMPLE: iteration 5
smoothSolver:  Solving for Ux, Initial residual = 0.00230077, Final residual = 4.76528e-06, No Iterations 2
smoothSolver:  Solving for Uy, Initial residual = 0.00230369, Final residual = 4.77015e-06, No Iterations 2
smoothSolver:  Solving for Uz, Initial residual = 7.13435e-06, Final residual = 7.13435e-06, No Iterations 0
DICPCG:  Solving for p, Initial residual = 0.0118599, Final residual = 0.000469606, No Iterations 3
DICPCG:  Solving for p, Initial residual = 0.000466124, Final residual = 8.30302e-07, No Iterations 454
time step continuity errors : sum local = 7.68802e-10, global = 4.96139e-12, cumulative = -1.52701e-08
PIMPLE: iteration 6
smoothSolver:  Solving for Ux, Initial residual = 0.00167256, Final residual = 3.28441e-06, No Iterations 2
smoothSolver:  Solving for Uy, Initial residual = 0.00167513, Final residual = 3.2909e-06, No Iterations 2
smoothSolver:  Solving for Uz, Initial residual = 3.36436e-06, Final residual = 3.36436e-06, No Iterations 0
DICPCG:  Solving for p, Initial residual = 0.00773716, Final residual = 0.000276555, No Iterations 3
DICPCG:  Solving for p, Initial residual = 0.000275786, Final residual = 8.30564e-07, No Iterations 451
time step continuity errors : sum local = 7.64517e-10, global = -4.67517e-12, cumulative = -1.52748e-08
PIMPLE: iteration 7
smoothSolver:  Solving for Ux, Initial residual = 0.00122135, Final residual = 2.3092e-06, No Iterations 2
smoothSolver:  Solving for Uy, Initial residual = 0.00122315, Final residual = 2.31509e-06, No Iterations 2
smoothSolver:  Solving for Uz, Initial residual = 2.67457e-06, Final residual = 2.67457e-06, No Iterations 0
DICPCG:  Solving for p, Initial residual = 0.00503637, Final residual = 0.000223477, No Iterations 2
DICPCG:  Solving for p, Initial residual = 0.000223349, Final residual = 9.71096e-07, No Iterations 439
time step continuity errors : sum local = 8.90631e-10, global = 8.79822e-12, cumulative = -1.5266e-08
PIMPLE: iteration 8
smoothSolver:  Solving for Ux, Initial residual = 0.000905609, Final residual = 1.76044e-06, No Iterations 2
smoothSolver:  Solving for Uy, Initial residual = 0.000906844, Final residual = 1.76741e-06, No Iterations 2
smoothSolver:  Solving for Uz, Initial residual = 2.2053e-06, Final residual = 2.2053e-06, No Iterations 0
DICPCG:  Solving for p, Initial residual = 0.00330815, Final residual = 0.000110779, No Iterations 2
DICPCG:  Solving for p, Initial residual = 0.000110813, Final residual = 8.44029e-07, No Iterations 442
time step continuity errors : sum local = 7.72738e-10, global = -4.60318e-12, cumulative = -1.52706e-08
PIMPLE: iteration 9
smoothSolver:  Solving for Ux, Initial residual = 0.00173935, Final residual = 6.16721e-06, No Iterations 7
smoothSolver:  Solving for Uy, Initial residual = 0.00174198, Final residual = 6.20891e-06, No Iterations 7
smoothSolver:  Solving for Uz, Initial residual = 4.07096e-06, Final residual = 4.07096e-06, No Iterations 0
DICPCG:  Solving for p, Initial residual = 0.103075, Final residual = 0.00263029, No Iterations 2
DICPCG:  Solving for p, Initial residual = 0.00291937, Final residual = 8.95392e-07, No Iterations 455
time step continuity errors : sum local = 1.68065e-09, global = -7.44234e-12, cumulative = -1.52781e-08
smoothSolver:  Solving for epsilon, Initial residual = 0.00011852, Final residual = 4.52508e-06, No Iterations 2
bounding epsilon, min: -2.47389e-06 max: 0.000367971 average: 7.1271e-06
smoothSolver:  Solving for k, Initial residual = 0.000149736, Final residual = 5.31409e-06, No Iterations 3
PIMPLE: converged in 9 iterations
ExecutionTime = 29.87 s  ClockTime = 29 s

Courant Number mean: 1.24817 max: 9.94692
deltaT = 0.847458
Time = 402.542

PIMPLE: iteration 1
smoothSolver:  Solving for Ux, Initial residual = 0.00337406, Final residual = 8.13448e-06, No Iterations 2
smoothSolver:  Solving for Uy, Initial residual = 0.00335832, Final residual = 8.14076e-06, No Iterations 2
smoothSolver:  Solving for Uz, Initial residual = 1.43446e-05, Final residual = 5.41721e-07, No Iterations 1
DICPCG:  Solving for p, Initial residual = 0.119563, Final residual = 0.00472444, No Iterations 2
DICPCG:  Solving for p, Initial residual = 0.00423335, Final residual = 9.6655e-07, No Iterations 457
time step continuity errors : sum local = 8.98947e-10, global = -1.22071e-12, cumulative = -1.52793e-08
PIMPLE: iteration 2
smoothSolver:  Solving for Ux, Initial residual = 0.00227405, Final residual = 5.44997e-06, No Iterations 2
smoothSolver:  Solving for Uy, Initial residual = 0.0022655, Final residual = 5.44126e-06, No Iterations 2
smoothSolver:  Solving for Uz, Initial residual = 1.60695e-05, Final residual = 4.27036e-07, No Iterations 1
DICPCG:  Solving for p, Initial residual = 0.0655124, Final residual = 0.00223107, No Iterations 2
DICPCG:  Solving for p, Initial residual = 0.00209722, Final residual = 9.07854e-07, No Iterations 456
time step continuity errors : sum local = 8.53867e-10, global = 1.97299e-12, cumulative = -1.52773e-08
PIMPLE: iteration 3
smoothSolver:  Solving for Ux, Initial residual = 0.00309484, Final residual = 6.93796e-06, No Iterations 2
smoothSolver:  Solving for Uy, Initial residual = 0.00309016, Final residual = 6.93428e-06, No Iterations 2
smoothSolver:  Solving for Uz, Initial residual = 1.84056e-05, Final residual = 5.13538e-07, No Iterations 1
DICPCG:  Solving for p, Initial residual = 0.0350222, Final residual = 0.00071153, No Iterations 2
DICPCG:  Solving for p, Initial residual = 0.000688438, Final residual = 7.73045e-07, No Iterations 456
time step continuity errors : sum local = 7.26065e-10, global = 4.09429e-12, cumulative = -1.52732e-08
PIMPLE: iteration 4
smoothSolver:  Solving for Ux, Initial residual = 0.00293985, Final residual = 6.34628e-06, No Iterations 2
smoothSolver:  Solving for Uy, Initial residual = 0.002937, Final residual = 6.34437e-06, No Iterations 2
smoothSolver:  Solving for Uz, Initial residual = 1.34444e-05, Final residual = 3.94315e-07, No Iterations 1
DICPCG:  Solving for p, Initial residual = 0.0193168, Final residual = 0.000882423, No Iterations 2
DICPCG:  Solving for p, Initial residual = 0.000868057, Final residual = 8.97395e-07, No Iterations 458
time step continuity errors : sum local = 8.37058e-10, global = 1.14785e-11, cumulative = -1.52617e-08
PIMPLE: iteration 5
smoothSolver:  Solving for Ux, Initial residual = 0.00230927, Final residual = 4.80965e-06, No Iterations 2
smoothSolver:  Solving for Uy, Initial residual = 0.00230877, Final residual = 4.8105e-06, No Iterations 2
smoothSolver:  Solving for Uz, Initial residual = 7.14585e-06, Final residual = 7.14585e-06, No Iterations 0
DICPCG:  Solving for p, Initial residual = 0.0119271, Final residual = 0.000468036, No Iterations 3
DICPCG:  Solving for p, Initial residual = 0.000464595, Final residual = 8.62859e-07, No Iterations 457
time step continuity errors : sum local = 7.98705e-10, global = 1.19047e-11, cumulative = -1.52498e-08
PIMPLE: iteration 6
smoothSolver:  Solving for Ux, Initial residual = 0.00167722, Final residual = 3.31718e-06, No Iterations 2
smoothSolver:  Solving for Uy, Initial residual = 0.0016777, Final residual = 3.32034e-06, No Iterations 2
smoothSolver:  Solving for Uz, Initial residual = 3.36797e-06, Final residual = 3.36797e-06, No Iterations 0
DICPCG:  Solving for p, Initial residual = 0.00780186, Final residual = 0.00027694, No Iterations 3
DICPCG:  Solving for p, Initial residual = 0.00027618, Final residual = 9.224e-07, No Iterations 452
time step continuity errors : sum local = 8.4879e-10, global = 5.87703e-12, cumulative = -1.52439e-08
PIMPLE: iteration 7
smoothSolver:  Solving for Ux, Initial residual = 0.00122732, Final residual = 2.33042e-06, No Iterations 2
smoothSolver:  Solving for Uy, Initial residual = 0.00122838, Final residual = 2.33535e-06, No Iterations 2
smoothSolver:  Solving for Uz, Initial residual = 2.68863e-06, Final residual = 2.68863e-06, No Iterations 0
DICPCG:  Solving for p, Initial residual = 0.00508205, Final residual = 0.000225741, No Iterations 2
DICPCG:  Solving for p, Initial residual = 0.000225616, Final residual = 9.79518e-07, No Iterations 448
time step continuity errors : sum local = 8.98085e-10, global = -4.38247e-12, cumulative = -1.52483e-08
PIMPLE: iteration 8
smoothSolver:  Solving for Ux, Initial residual = 0.000912538, Final residual = 1.7765e-06, No Iterations 2
smoothSolver:  Solving for Uy, Initial residual = 0.000913897, Final residual = 1.78042e-06, No Iterations 2
smoothSolver:  Solving for Uz, Initial residual = 2.21479e-06, Final residual = 2.21479e-06, No Iterations 0
DICPCG:  Solving for p, Initial residual = 0.00333429, Final residual = 0.00011095, No Iterations 2
DICPCG:  Solving for p, Initial residual = 0.000110985, Final residual = 9.44294e-07, No Iterations 438
time step continuity errors : sum local = 8.64289e-10, global = -1.07337e-11, cumulative = -1.52591e-08
PIMPLE: iteration 9
smoothSolver:  Solving for Ux, Initial residual = 0.00175582, Final residual = 6.0419e-06, No Iterations 7
smoothSolver:  Solving for Uy, Initial residual = 0.00175909, Final residual = 6.07408e-06, No Iterations 7
smoothSolver:  Solving for Uz, Initial residual = 4.07011e-06, Final residual = 4.07011e-06, No Iterations 0
DICPCG:  Solving for p, Initial residual = 0.103106, Final residual = 0.00261706, No Iterations 2
DICPCG:  Solving for p, Initial residual = 0.00290463, Final residual = 9.63393e-07, No Iterations 459
time step continuity errors : sum local = 1.80784e-09, global = -1.36224e-11, cumulative = -1.52727e-08
smoothSolver:  Solving for epsilon, Initial residual = 0.00011834, Final residual = 5.29221e-06, No Iterations 2
bounding epsilon, min: -2.42132e-06 max: 0.000366875 average: 7.12651e-06
smoothSolver:  Solving for k, Initial residual = 0.000144803, Final residual = 5.45632e-06, No Iterations 3
PIMPLE: converged in 9 iterations
ExecutionTime = 44.11 s  ClockTime = 44 s

Courant Number mean: 1.24817 max: 9.94593
deltaT = 0.847458
Time = 403.39

PIMPLE: iteration 1
smoothSolver:  Solving for Ux, Initial residual = 0.00352715, Final residual = 8.41054e-06, No Iterations 2
smoothSolver:  Solving for Uy, Initial residual = 0.00346729, Final residual = 8.3587e-06, No Iterations 2
smoothSolver:  Solving for Uz, Initial residual = 1.55812e-05, Final residual = 5.67551e-07, No Iterations 1
DICPCG:  Solving for p, Initial residual = 0.1197, Final residual = 0.00463719, No Iterations 2
DICPCG:  Solving for p, Initial residual = 0.00415464, Final residual = 9.38745e-07, No Iterations 458
time step continuity errors : sum local = 8.73027e-10, global = -7.49457e-13, cumulative = -1.52734e-08
PIMPLE: iteration 2
smoothSolver:  Solving for Ux, Initial residual = 0.0023347, Final residual = 5.50194e-06, No Iterations 2
smoothSolver:  Solving for Uy, Initial residual = 0.00229992, Final residual = 5.47441e-06, No Iterations 2
smoothSolver:  Solving for Uz, Initial residual = 1.67031e-05, Final residual = 4.41183e-07, No Iterations 1
DICPCG:  Solving for p, Initial residual = 0.06563, Final residual = 0.00216416, No Iterations 2
DICPCG:  Solving for p, Initial residual = 0.00203403, Final residual = 9.87637e-07, No Iterations 451
time step continuity errors : sum local = 9.28995e-10, global = -7.43686e-12, cumulative = -1.52809e-08
PIMPLE: iteration 3
smoothSolver:  Solving for Ux, Initial residual = 0.00311587, Final residual = 6.90269e-06, No Iterations 2
smoothSolver:  Solving for Uy, Initial residual = 0.00309762, Final residual = 6.88696e-06, No Iterations 2
smoothSolver:  Solving for Uz, Initial residual = 1.87452e-05, Final residual = 5.21045e-07, No Iterations 1
DICPCG:  Solving for p, Initial residual = 0.0350415, Final residual = 0.000697896, No Iterations 2
DICPCG:  Solving for p, Initial residual = 0.000675154, Final residual = 8.3197e-07, No Iterations 455
time step continuity errors : sum local = 7.81556e-10, global = 5.28215e-12, cumulative = -1.52756e-08
PIMPLE: iteration 4
smoothSolver:  Solving for Ux, Initial residual = 0.00295164, Final residual = 6.29384e-06, No Iterations 2
smoothSolver:  Solving for Uy, Initial residual = 0.00294139, Final residual = 6.28848e-06, No Iterations 2
smoothSolver:  Solving for Uz, Initial residual = 1.36394e-05, Final residual = 3.99411e-07, No Iterations 1
DICPCG:  Solving for p, Initial residual = 0.0192616, Final residual = 0.00089599, No Iterations 2
DICPCG:  Solving for p, Initial residual = 0.000881312, Final residual = 9.16971e-07, No Iterations 456
time step continuity errors : sum local = 8.55518e-10, global = 9.66778e-12, cumulative = -1.52659e-08
PIMPLE: iteration 5
smoothSolver:  Solving for Ux, Initial residual = 0.00231703, Final residual = 4.7715e-06, No Iterations 2
smoothSolver:  Solving for Uy, Initial residual = 0.002311, Final residual = 4.77241e-06, No Iterations 2
smoothSolver:  Solving for Uz, Initial residual = 7.25747e-06, Final residual = 7.25747e-06, No Iterations 0
DICPCG:  Solving for p, Initial residual = 0.0118681, Final residual = 0.000465021, No Iterations 3
DICPCG:  Solving for p, Initial residual = 0.000461572, Final residual = 8.23674e-07, No Iterations 454
time step continuity errors : sum local = 7.62626e-10, global = 4.25078e-12, cumulative = -1.52617e-08
PIMPLE: iteration 6
smoothSolver:  Solving for Ux, Initial residual = 0.00168266, Final residual = 3.2928e-06, No Iterations 2
smoothSolver:  Solving for Uy, Initial residual = 0.00167915, Final residual = 3.29297e-06, No Iterations 2
smoothSolver:  Solving for Uz, Initial residual = 3.43203e-06, Final residual = 3.43203e-06, No Iterations 0
DICPCG:  Solving for p, Initial residual = 0.00774351, Final residual = 0.000274584, No Iterations 3
DICPCG:  Solving for p, Initial residual = 0.000273819, Final residual = 8.84603e-07, No Iterations 451
time step continuity errors : sum local = 8.14226e-10, global = -7.13059e-12, cumulative = -1.52688e-08
PIMPLE: iteration 7
smoothSolver:  Solving for Ux, Initial residual = 0.00122837, Final residual = 2.31934e-06, No Iterations 2
smoothSolver:  Solving for Uy, Initial residual = 0.00122621, Final residual = 2.31725e-06, No Iterations 2
smoothSolver:  Solving for Uz, Initial residual = 2.72547e-06, Final residual = 2.72547e-06, No Iterations 0
DICPCG:  Solving for p, Initial residual = 0.00503835, Final residual = 0.000222806, No Iterations 2
DICPCG:  Solving for p, Initial residual = 0.000222677, Final residual = 8.36213e-07, No Iterations 439
time step continuity errors : sum local = 7.669e-10, global = 2.28032e-12, cumulative = -1.52665e-08
PIMPLE: iteration 8
smoothSolver:  Solving for Ux, Initial residual = 0.000911301, Final residual = 1.7708e-06, No Iterations 2
smoothSolver:  Solving for Uy, Initial residual = 0.000909487, Final residual = 1.76963e-06, No Iterations 2
smoothSolver:  Solving for Uz, Initial residual = 2.24799e-06, Final residual = 2.24799e-06, No Iterations 0
DICPCG:  Solving for p, Initial residual = 0.00330847, Final residual = 0.000110362, No Iterations 2
DICPCG:  Solving for p, Initial residual = 0.000110396, Final residual = 8.61031e-07, No Iterations 444
time step continuity errors : sum local = 7.88281e-10, global = -4.3152e-12, cumulative = -1.52708e-08
PIMPLE: iteration 9
smoothSolver:  Solving for Ux, Initial residual = 0.00175211, Final residual = 6.19371e-06, No Iterations 7
smoothSolver:  Solving for Uy, Initial residual = 0.00174896, Final residual = 6.2219e-06, No Iterations 7
smoothSolver:  Solving for Uz, Initial residual = 4.16519e-06, Final residual = 4.16519e-06, No Iterations 0
DICPCG:  Solving for p, Initial residual = 0.103072, Final residual = 0.00262953, No Iterations 2
DICPCG:  Solving for p, Initial residual = 0.00291853, Final residual = 7.65558e-07, No Iterations 455
time step continuity errors : sum local = 1.4369e-09, global = -7.01856e-12, cumulative = -1.52779e-08
smoothSolver:  Solving for epsilon, Initial residual = 0.000138009, Final residual = 4.91747e-06, No Iterations 2
bounding epsilon, min: -5.46857e-06 max: 0.000368038 average: 7.12722e-06
smoothSolver:  Solving for k, Initial residual = 0.000149672, Final residual = 5.24946e-06, No Iterations 3
PIMPLE: converged in 9 iterations
ExecutionTime = 57.52 s  ClockTime = 57 s

Courant Number mean: 1.24817 max: 9.94894
deltaT = 0.847458
Time = 404.237

PIMPLE: iteration 1
smoothSolver:  Solving for Ux, Initial residual = 0.00336499, Final residual = 8.14561e-06, No Iterations 2
smoothSolver:  Solving for Uy, Initial residual = 0.00335721, Final residual = 8.15123e-06, No Iterations 2
smoothSolver:  Solving for Uz, Initial residual = 1.39683e-05, Final residual = 5.29873e-07, No Iterations 1
DICPCG:  Solving for p, Initial residual = 0.119559, Final residual = 0.00472522, No Iterations 2
DICPCG:  Solving for p, Initial residual = 0.00423404, Final residual = 9.39018e-07, No Iterations 459
time step continuity errors : sum local = 8.73313e-10, global = 4.39398e-12, cumulative = -1.52735e-08
PIMPLE: iteration 2
smoothSolver:  Solving for Ux, Initial residual = 0.00227067, Final residual = 5.46032e-06, No Iterations 2
smoothSolver:  Solving for Uy, Initial residual = 0.00226705, Final residual = 5.46222e-06, No Iterations 2
smoothSolver:  Solving for Uz, Initial residual = 1.59173e-05, Final residual = 4.23735e-07, No Iterations 1
DICPCG:  Solving for p, Initial residual = 0.0655123, Final residual = 0.00223082, No Iterations 2
DICPCG:  Solving for p, Initial residual = 0.00209698, Final residual = 9.98956e-07, No Iterations 455
time step continuity errors : sum local = 9.39514e-10, global = 8.95251e-13, cumulative = -1.52726e-08
PIMPLE: iteration 3
smoothSolver:  Solving for Ux, Initial residual = 0.00309356, Final residual = 6.94856e-06, No Iterations 2
smoothSolver:  Solving for Uy, Initial residual = 0.00309021, Final residual = 6.95025e-06, No Iterations 2
smoothSolver:  Solving for Uz, Initial residual = 1.83251e-05, Final residual = 5.1239e-07, No Iterations 1
DICPCG:  Solving for p, Initial residual = 0.0350216, Final residual = 0.000710397, No Iterations 2
DICPCG:  Solving for p, Initial residual = 0.00068734, Final residual = 7.91069e-07, No Iterations 456
time step continuity errors : sum local = 7.42955e-10, global = 3.82381e-12, cumulative = -1.52687e-08
PIMPLE: iteration 4
smoothSolver:  Solving for Ux, Initial residual = 0.00294022, Final residual = 6.35044e-06, No Iterations 2
smoothSolver:  Solving for Uy, Initial residual = 0.00293814, Final residual = 6.35344e-06, No Iterations 2
smoothSolver:  Solving for Uz, Initial residual = 1.33962e-05, Final residual = 3.94036e-07, No Iterations 1
DICPCG:  Solving for p, Initial residual = 0.01932, Final residual = 0.000879642, No Iterations 2
DICPCG:  Solving for p, Initial residual = 0.000865319, Final residual = 8.66772e-07, No Iterations 458
time step continuity errors : sum local = 8.08449e-10, global = 1.10482e-11, cumulative = -1.52577e-08
PIMPLE: iteration 5
smoothSolver:  Solving for Ux, Initial residual = 0.00231131, Final residual = 4.81438e-06, No Iterations 2
smoothSolver:  Solving for Uy, Initial residual = 0.00230948, Final residual = 4.81479e-06, No Iterations 2
smoothSolver:  Solving for Uz, Initial residual = 7.11782e-06, Final residual = 7.11782e-06, No Iterations 0
DICPCG:  Solving for p, Initial residual = 0.011928, Final residual = 0.000467456, No Iterations 3
DICPCG:  Solving for p, Initial residual = 0.000464019, Final residual = 9.88614e-07, No Iterations 456
time step continuity errors : sum local = 9.15065e-10, global = 1.20712e-11, cumulative = -1.52456e-08
PIMPLE: iteration 6
smoothSolver:  Solving for Ux, Initial residual = 0.00167906, Final residual = 3.32203e-06, No Iterations 2
smoothSolver:  Solving for Uy, Initial residual = 0.00167756, Final residual = 3.32286e-06, No Iterations 2
smoothSolver:  Solving for Uz, Initial residual = 3.35287e-06, Final residual = 3.35287e-06, No Iterations 0
DICPCG:  Solving for p, Initial residual = 0.00780411, Final residual = 0.000276465, No Iterations 3
DICPCG:  Solving for p, Initial residual = 0.000275705, Final residual = 8.03127e-07, No Iterations 450
time step continuity errors : sum local = 7.39009e-10, global = -3.68419e-12, cumulative = -1.52493e-08
PIMPLE: iteration 7
smoothSolver:  Solving for Ux, Initial residual = 0.00122916, Final residual = 2.3365e-06, No Iterations 2
smoothSolver:  Solving for Uy, Initial residual = 0.00122878, Final residual = 2.33888e-06, No Iterations 2
smoothSolver:  Solving for Uz, Initial residual = 2.68691e-06, Final residual = 2.68691e-06, No Iterations 0
DICPCG:  Solving for p, Initial residual = 0.00508347, Final residual = 0.00022546, No Iterations 2
DICPCG:  Solving for p, Initial residual = 0.000225335, Final residual = 9.3503e-07, No Iterations 450
time step continuity errors : sum local = 8.57272e-10, global = -6.85103e-12, cumulative = -1.52562e-08
PIMPLE: iteration 8
smoothSolver:  Solving for Ux, Initial residual = 0.000914684, Final residual = 1.78242e-06, No Iterations 2
smoothSolver:  Solving for Uy, Initial residual = 0.000914012, Final residual = 1.78326e-06, No Iterations 2
smoothSolver:  Solving for Uz, Initial residual = 2.22158e-06, Final residual = 2.22158e-06, No Iterations 0
DICPCG:  Solving for p, Initial residual = 0.00333522, Final residual = 0.000111022, No Iterations 2
DICPCG:  Solving for p, Initial residual = 0.000111056, Final residual = 9.57867e-07, No Iterations 437
time step continuity errors : sum local = 8.76691e-10, global = -2.43842e-12, cumulative = -1.52586e-08
PIMPLE: iteration 9
smoothSolver:  Solving for Ux, Initial residual = 0.00176183, Final residual = 6.08005e-06, No Iterations 7
smoothSolver:  Solving for Uy, Initial residual = 0.00175953, Final residual = 6.07746e-06, No Iterations 7
smoothSolver:  Solving for Uz, Initial residual = 4.09155e-06, Final residual = 4.09155e-06, No Iterations 0
DICPCG:  Solving for p, Initial residual = 0.1031, Final residual = 0.00261834, No Iterations 2
DICPCG:  Solving for p, Initial residual = 0.00290607, Final residual = 9.63575e-07, No Iterations 457
time step continuity errors : sum local = 1.80812e-09, global = -2.04681e-11, cumulative = -1.52791e-08
smoothSolver:  Solving for epsilon, Initial residual = 0.000115723, Final residual = 4.95938e-06, No Iterations 2
bounding epsilon, min: -3.71238e-06 max: 0.000364265 average: 7.12659e-06
smoothSolver:  Solving for k, Initial residual = 0.000142592, Final residual = 5.3662e-06, No Iterations 3
PIMPLE: converged in 9 iterations
ExecutionTime = 72.45 s  ClockTime = 72 s

Courant Number mean: 1.24817 max: 9.95281
deltaT = 0.847458
Time = 405.085

PIMPLE: iteration 1
smoothSolver:  Solving for Ux, Initial residual = 0.00338859, Final residual = 8.29627e-06, No Iterations 2
smoothSolver:  Solving for Uy, Initial residual = 0.00338726, Final residual = 8.27777e-06, No Iterations 2
smoothSolver:  Solving for Uz, Initial residual = 1.38335e-05, Final residual = 5.21736e-07, No Iterations 1
DICPCG:  Solving for p, Initial residual = 0.119694, Final residual = 0.00463667, No Iterations 2
DICPCG:  Solving for p, Initial residual = 0.00415414, Final residual = 9.91288e-07, No Iterations 458
time step continuity errors : sum local = 9.21876e-10, global = -5.72757e-13, cumulative = -1.52796e-08
PIMPLE: iteration 2
smoothSolver:  Solving for Ux, Initial residual = 0.00226489, Final residual = 5.43522e-06, No Iterations 2
smoothSolver:  Solving for Uy, Initial residual = 0.00226475, Final residual = 5.43443e-06, No Iterations 2
smoothSolver:  Solving for Uz, Initial residual = 1.58168e-05, Final residual = 4.19034e-07, No Iterations 1
DICPCG:  Solving for p, Initial residual = 0.0656158, Final residual = 0.00216167, No Iterations 2
DICPCG:  Solving for p, Initial residual = 0.0020317, Final residual = 9.78847e-07, No Iterations 454
time step continuity errors : sum local = 9.20689e-10, global = -3.9235e-12, cumulative = -1.52836e-08
PIMPLE: iteration 3
smoothSolver:  Solving for Ux, Initial residual = 0.0030735, Final residual = 6.8599e-06, No Iterations 2
smoothSolver:  Solving for Uy, Initial residual = 0.0030737, Final residual = 6.86434e-06, No Iterations 2
smoothSolver:  Solving for Uz, Initial residual = 1.82616e-05, Final residual = 5.089e-07, No Iterations 1
DICPCG:  Solving for p, Initial residual = 0.0350253, Final residual = 0.000695839, No Iterations 2
DICPCG:  Solving for p, Initial residual = 0.000673166, Final residual = 8.14481e-07, No Iterations 455
time step continuity errors : sum local = 7.65084e-10, global = 4.82269e-12, cumulative = -1.52787e-08
PIMPLE: iteration 4
smoothSolver:  Solving for Ux, Initial residual = 0.00292566, Final residual = 6.27113e-06, No Iterations 2
smoothSolver:  Solving for Uy, Initial residual = 0.00292562, Final residual = 6.27149e-06, No Iterations 2
smoothSolver:  Solving for Uz, Initial residual = 1.3358e-05, Final residual = 3.91982e-07, No Iterations 1
DICPCG:  Solving for p, Initial residual = 0.0192441, Final residual = 0.000901603, No Iterations 2
DICPCG:  Solving for p, Initial residual = 0.000886835, Final residual = 9.31633e-07, No Iterations 456
time step continuity errors : sum local = 8.69141e-10, global = 9.74842e-12, cumulative = -1.5269e-08
PIMPLE: iteration 5
smoothSolver:  Solving for Ux, Initial residual = 0.00230144, Final residual = 4.76181e-06, No Iterations 2
smoothSolver:  Solving for Uy, Initial residual = 0.00230107, Final residual = 4.75896e-06, No Iterations 2
smoothSolver:  Solving for Uz, Initial residual = 7.08462e-06, Final residual = 7.08462e-06, No Iterations 0
DICPCG:  Solving for p, Initial residual = 0.0118546, Final residual = 0.000468997, No Iterations 3
DICPCG:  Solving for p, Initial residual = 0.000465523, Final residual = 8.08267e-07, No Iterations 454
time step continuity errors : sum local = 7.48307e-10, global = 3.72283e-12, cumulative = -1.52653e-08
PIMPLE: iteration 6
smoothSolver:  Solving for Ux, Initial residual = 0.001673, Final residual = 3.28687e-06, No Iterations 2
smoothSolver:  Solving for Uy, Initial residual = 0.00167257, Final residual = 3.28583e-06, No Iterations 2
smoothSolver:  Solving for Uz, Initial residual = 3.31579e-06, Final residual = 3.31579e-06, No Iterations 0
DICPCG:  Solving for p, Initial residual = 0.00773773, Final residual = 0.000276518, No Iterations 3
DICPCG:  Solving for p, Initial residual = 0.00027575, Final residual = 8.68399e-07, No Iterations 451
time step continuity errors : sum local = 7.99261e-10, global = -7.04289e-12, cumulative = -1.52723e-08
PIMPLE: iteration 7
smoothSolver:  Solving for Ux, Initial residual = 0.00122221, Final residual = 2.31488e-06, No Iterations 2
smoothSolver:  Solving for Uy, Initial residual = 0.00122183, Final residual = 2.3121e-06, No Iterations 2
smoothSolver:  Solving for Uz, Initial residual = 2.64871e-06, Final residual = 2.64871e-06, No Iterations 0
DICPCG:  Solving for p, Initial residual = 0.00503744, Final residual = 0.000223125, No Iterations 2
DICPCG:  Solving for p, Initial residual = 0.000222998, Final residual = 9.25848e-07, No Iterations 439
time step continuity errors : sum local = 8.49056e-10, global = -4.8656e-14, cumulative = -1.52724e-08
PIMPLE: iteration 8
smoothSolver:  Solving for Ux, Initial residual = 0.000906488, Final residual = 1.7664e-06, No Iterations 2
smoothSolver:  Solving for Uy, Initial residual = 0.000905876, Final residual = 1.76569e-06, No Iterations 2
smoothSolver:  Solving for Uz, Initial residual = 2.19361e-06, Final residual = 2.19361e-06, No Iterations 0
DICPCG:  Solving for p, Initial residual = 0.00330756, Final residual = 0.000110719, No Iterations 2
DICPCG:  Solving for p, Initial residual = 0.000110754, Final residual = 9.50722e-07, No Iterations 443
time step continuity errors : sum local = 8.70348e-10, global = -6.95731e-12, cumulative = -1.52793e-08
PIMPLE: iteration 9
smoothSolver:  Solving for Ux, Initial residual = 0.00174164, Final residual = 6.19593e-06, No Iterations 7
smoothSolver:  Solving for Uy, Initial residual = 0.00174082, Final residual = 6.20063e-06, No Iterations 7
smoothSolver:  Solving for Uz, Initial residual = 4.05117e-06, Final residual = 4.05117e-06, No Iterations 0
DICPCG:  Solving for p, Initial residual = 0.10307, Final residual = 0.00262909, No Iterations 2
DICPCG:  Solving for p, Initial residual = 0.00291804, Final residual = 9.00332e-07, No Iterations 455
time step continuity errors : sum local = 1.68978e-09, global = -8.43212e-12, cumulative = -1.52877e-08
smoothSolver:  Solving for epsilon, Initial residual = 0.000117496, Final residual = 4.57645e-06, No Iterations 2
bounding epsilon, min: -3.09323e-06 max: 0.000367648 average: 7.12717e-06
smoothSolver:  Solving for k, Initial residual = 0.000145759, Final residual = 5.17936e-06, No Iterations 3
PIMPLE: converged in 9 iterations
ExecutionTime = 87.03 s  ClockTime = 87 s

Courant Number mean: 1.24817 max: 9.94655
deltaT = 0.847458
Time = 405.932

PIMPLE: iteration 1
smoothSolver:  Solving for Ux, Initial residual = 0.00340065, Final residual = 8.32116e-06, No Iterations 2
smoothSolver:  Solving for Uy, Initial residual = 0.00339523, Final residual = 8.34028e-06, No Iterations 2
smoothSolver:  Solving for Uz, Initial residual = 1.42424e-05, Final residual = 5.38251e-07, No Iterations 1
DICPCG:  Solving for p, Initial residual = 0.11955, Final residual = 0.00473177, No Iterations 2
DICPCG:  Solving for p, Initial residual = 0.00423985, Final residual = 8.8084e-07, No Iterations 460
time step continuity errors : sum local = 8.19182e-10, global = 2.78353e-12, cumulative = -1.5285e-08
PIMPLE: iteration 2
smoothSolver:  Solving for Ux, Initial residual = 0.00228751, Final residual = 5.55066e-06, No Iterations 2
smoothSolver:  Solving for Uy, Initial residual = 0.0022853, Final residual = 5.55002e-06, No Iterations 2
smoothSolver:  Solving for Uz, Initial residual = 1.60552e-05, Final residual = 4.28838e-07, No Iterations 1
DICPCG:  Solving for p, Initial residual = 0.0654893, Final residual = 0.00224042, No Iterations 2
DICPCG:  Solving for p, Initial residual = 0.00210599, Final residual = 8.1417e-07, No Iterations 452
time step continuity errors : sum local = 7.65684e-10, global = -3.14412e-12, cumulative = -1.52881e-08
PIMPLE: iteration 3
smoothSolver:  Solving for Ux, Initial residual = 0.00310064, Final residual = 7.00332e-06, No Iterations 2
smoothSolver:  Solving for Uy, Initial residual = 0.00309993, Final residual = 6.99393e-06, No Iterations 2
smoothSolver:  Solving for Uz, Initial residual = 1.84002e-05, Final residual = 5.15393e-07, No Iterations 1
DICPCG:  Solving for p, Initial residual = 0.0349946, Final residual = 0.000717231, No Iterations 2
DICPCG:  Solving for p, Initial residual = 0.000693952, Final residual = 8.16966e-07, No Iterations 456
time step continuity errors : sum local = 7.67228e-10, global = 3.05111e-12, cumulative = -1.52851e-08
PIMPLE: iteration 4
smoothSolver:  Solving for Ux, Initial residual = 0.00294387, Final residual = 6.39001e-06, No Iterations 2
smoothSolver:  Solving for Uy, Initial residual = 0.00294246, Final residual = 6.37712e-06, No Iterations 2
smoothSolver:  Solving for Uz, Initial residual = 1.34331e-05, Final residual = 3.96046e-07, No Iterations 1
DICPCG:  Solving for p, Initial residual = 0.0192901, Final residual = 0.000881013, No Iterations 2
DICPCG:  Solving for p, Initial residual = 0.000866673, Final residual = 8.54681e-07, No Iterations 458
time step continuity errors : sum local = 7.97114e-10, global = 1.11357e-11, cumulative = -1.52739e-08
PIMPLE: iteration 5
smoothSolver:  Solving for Ux, Initial residual = 0.00231304, Final residual = 4.8401e-06, No Iterations 2
smoothSolver:  Solving for Uy, Initial residual = 0.0023115, Final residual = 4.83105e-06, No Iterations 2
smoothSolver:  Solving for Uz, Initial residual = 7.13016e-06, Final residual = 7.13016e-06, No Iterations 0
DICPCG:  Solving for p, Initial residual = 0.0119097, Final residual = 0.000469276, No Iterations 3
DICPCG:  Solving for p, Initial residual = 0.00046583, Final residual = 9.72938e-07, No Iterations 456
time step continuity errors : sum local = 9.00489e-10, global = 1.19114e-11, cumulative = -1.5262e-08
PIMPLE: iteration 6
smoothSolver:  Solving for Ux, Initial residual = 0.00168, Final residual = 3.33817e-06, No Iterations 2
smoothSolver:  Solving for Uy, Initial residual = 0.00167884, Final residual = 3.33219e-06, No Iterations 2
smoothSolver:  Solving for Uz, Initial residual = 3.3493e-06, Final residual = 3.3493e-06, No Iterations 0
DICPCG:  Solving for p, Initial residual = 0.00779654, Final residual = 0.000278254, No Iterations 3
DICPCG:  Solving for p, Initial residual = 0.000277492, Final residual = 9.31462e-07, No Iterations 450
time step continuity errors : sum local = 8.57039e-10, global = -8.57217e-12, cumulative = -1.52706e-08
PIMPLE: iteration 7
smoothSolver:  Solving for Ux, Initial residual = 0.00122976, Final residual = 2.35101e-06, No Iterations 2
smoothSolver:  Solving for Uy, Initial residual = 0.00122942, Final residual = 2.34588e-06, No Iterations 2
smoothSolver:  Solving for Uz, Initial residual = 2.68685e-06, Final residual = 2.68685e-06, No Iterations 0
DICPCG:  Solving for p, Initial residual = 0.00507901, Final residual = 0.000226332, No Iterations 2
DICPCG:  Solving for p, Initial residual = 0.000226209, Final residual = 8.78939e-07, No Iterations 450
time step continuity errors : sum local = 8.05794e-10, global = -4.22107e-12, cumulative = -1.52748e-08
PIMPLE: iteration 8
smoothSolver:  Solving for Ux, Initial residual = 0.000914148, Final residual = 1.79462e-06, No Iterations 2
smoothSolver:  Solving for Uy, Initial residual = 0.000915322, Final residual = 1.7923e-06, No Iterations 2
smoothSolver:  Solving for Uz, Initial residual = 2.22131e-06, Final residual = 2.22131e-06, No Iterations 0
DICPCG:  Solving for p, Initial residual = 0.00333314, Final residual = 0.000111558, No Iterations 2
DICPCG:  Solving for p, Initial residual = 0.000111594, Final residual = 9.51646e-07, No Iterations 437
time step continuity errors : sum local = 8.70946e-10, global = -4.16648e-12, cumulative = -1.5279e-08
PIMPLE: iteration 9
smoothSolver:  Solving for Ux, Initial residual = 0.00176093, Final residual = 6.62695e-06, No Iterations 7
smoothSolver:  Solving for Uy, Initial residual = 0.00176381, Final residual = 6.57803e-06, No Iterations 7
smoothSolver:  Solving for Uz, Initial residual = 4.08921e-06, Final residual = 4.08921e-06, No Iterations 0
DICPCG:  Solving for p, Initial residual = 0.103093, Final residual = 0.00261779, No Iterations 2
DICPCG:  Solving for p, Initial residual = 0.00290542, Final residual = 9.83528e-07, No Iterations 458
time step continuity errors : sum local = 1.8455e-09, global = -1.72062e-11, cumulative = -1.52962e-08
smoothSolver:  Solving for epsilon, Initial residual = 0.000123677, Final residual = 5.7194e-06, No Iterations 2
bounding epsilon, min: -2.40596e-06 max: 0.000367565 average: 7.12657e-06
smoothSolver:  Solving for k, Initial residual = 0.000142214, Final residual = 5.49137e-06, No Iterations 3
PIMPLE: converged in 9 iterations
ExecutionTime = 102.94 s  ClockTime = 103 s

Courant Number mean: 1.24817 max: 9.94272
deltaT = 0.847458
Time = 406.78

PIMPLE: iteration 1
smoothSolver:  Solving for Ux, Initial residual = 0.00338746, Final residual = 8.26865e-06, No Iterations 2
smoothSolver:  Solving for Uy, Initial residual = 0.00337933, Final residual = 8.26083e-06, No Iterations 2
smoothSolver:  Solving for Uz, Initial residual = 1.38241e-05, Final residual = 5.19347e-07, No Iterations 1
DICPCG:  Solving for p, Initial residual = 0.119687, Final residual = 0.00463502, No Iterations 2
DICPCG:  Solving for p, Initial residual = 0.00415274, Final residual = 8.71109e-07, No Iterations 459
time step continuity errors : sum local = 8.10078e-10, global = -5.68417e-13, cumulative = -1.52967e-08
PIMPLE: iteration 2
smoothSolver:  Solving for Ux, Initial residual = 0.00226623, Final residual = 5.44411e-06, No Iterations 2
smoothSolver:  Solving for Uy, Initial residual = 0.00226381, Final residual = 5.43803e-06, No Iterations 2
smoothSolver:  Solving for Uz, Initial residual = 1.58205e-05, Final residual = 4.18202e-07, No Iterations 1
DICPCG:  Solving for p, Initial residual = 0.0656146, Final residual = 0.00216074, No Iterations 2
DICPCG:  Solving for p, Initial residual = 0.00203083, Final residual = 8.98465e-07, No Iterations 455
time step continuity errors : sum local = 8.45042e-10, global = -3.72118e-13, cumulative = -1.52971e-08
PIMPLE: iteration 3
smoothSolver:  Solving for Ux, Initial residual = 0.00307442, Final residual = 6.87709e-06, No Iterations 2
smoothSolver:  Solving for Uy, Initial residual = 0.00307566, Final residual = 6.87526e-06, No Iterations 2
smoothSolver:  Solving for Uz, Initial residual = 1.82618e-05, Final residual = 5.08427e-07, No Iterations 1
DICPCG:  Solving for p, Initial residual = 0.0350175, Final residual = 0.00069736, No Iterations 2
DICPCG:  Solving for p, Initial residual = 0.000674637, Final residual = 8.2758e-07, No Iterations 455
time step continuity errors : sum local = 7.77347e-10, global = 5.57034e-12, cumulative = -1.52915e-08
PIMPLE: iteration 4
smoothSolver:  Solving for Ux, Initial residual = 0.00292536, Final residual = 6.27644e-06, No Iterations 2
smoothSolver:  Solving for Uy, Initial residual = 0.00292757, Final residual = 6.27922e-06, No Iterations 2
smoothSolver:  Solving for Uz, Initial residual = 1.33542e-05, Final residual = 3.91858e-07, No Iterations 1
DICPCG:  Solving for p, Initial residual = 0.0192433, Final residual = 0.000897923, No Iterations 2
DICPCG:  Solving for p, Initial residual = 0.000883214, Final residual = 8.36214e-07, No Iterations 456
time step continuity errors : sum local = 7.80085e-10, global = 8.99077e-12, cumulative = -1.52826e-08
PIMPLE: iteration 5
smoothSolver:  Solving for Ux, Initial residual = 0.00230098, Final residual = 4.75539e-06, No Iterations 2
smoothSolver:  Solving for Uy, Initial residual = 0.0023025, Final residual = 4.76469e-06, No Iterations 2
smoothSolver:  Solving for Uz, Initial residual = 7.07622e-06, Final residual = 7.07622e-06, No Iterations 0
DICPCG:  Solving for p, Initial residual = 0.0118577, Final residual = 0.000467423, No Iterations 3
DICPCG:  Solving for p, Initial residual = 0.000463959, Final residual = 9.76171e-07, No Iterations 453
time step continuity errors : sum local = 9.03719e-10, global = 4.51688e-12, cumulative = -1.5278e-08
PIMPLE: iteration 6
smoothSolver:  Solving for Ux, Initial residual = 0.001672, Final residual = 3.27832e-06, No Iterations 2
smoothSolver:  Solving for Uy, Initial residual = 0.00167413, Final residual = 3.28735e-06, No Iterations 2
smoothSolver:  Solving for Uz, Initial residual = 3.30335e-06, Final residual = 3.30335e-06, No Iterations 0
DICPCG:  Solving for p, Initial residual = 0.00774099, Final residual = 0.000275542, No Iterations 3
DICPCG:  Solving for p, Initial residual = 0.000274775, Final residual = 8.57112e-07, No Iterations 451
time step continuity errors : sum local = 7.88848e-10, global = -6.83378e-12, cumulative = -1.52849e-08
PIMPLE: iteration 7
smoothSolver:  Solving for Ux, Initial residual = 0.00122161, Final residual = 2.30777e-06, No Iterations 2
smoothSolver:  Solving for Uy, Initial residual = 0.00122294, Final residual = 2.31498e-06, No Iterations 2
smoothSolver:  Solving for Uz, Initial residual = 2.64691e-06, Final residual = 2.64691e-06, No Iterations 0
DICPCG:  Solving for p, Initial residual = 0.00503875, Final residual = 0.000222964, No Iterations 2
DICPCG:  Solving for p, Initial residual = 0.000222837, Final residual = 9.73656e-07, No Iterations 442
time step continuity errors : sum local = 8.92876e-10, global = -6.44987e-13, cumulative = -1.52855e-08
PIMPLE: iteration 8
smoothSolver:  Solving for Ux, Initial residual = 0.000906178, Final residual = 1.76298e-06, No Iterations 2
smoothSolver:  Solving for Uy, Initial residual = 0.000907265, Final residual = 1.76718e-06, No Iterations 2
smoothSolver:  Solving for Uz, Initial residual = 2.1957e-06, Final residual = 2.1957e-06, No Iterations 0
DICPCG:  Solving for p, Initial residual = 0.00330923, Final residual = 0.00011057, No Iterations 2
DICPCG:  Solving for p, Initial residual = 0.000110605, Final residual = 9.37572e-07, No Iterations 433
time step continuity errors : sum local = 8.58291e-10, global = -1.74392e-11, cumulative = -1.5303e-08
PIMPLE: iteration 9
smoothSolver:  Solving for Ux, Initial residual = 0.00174222, Final residual = 6.14862e-06, No Iterations 7
smoothSolver:  Solving for Uy, Initial residual = 0.00174386, Final residual = 6.15474e-06, No Iterations 7
smoothSolver:  Solving for Uz, Initial residual = 4.04897e-06, Final residual = 4.04897e-06, No Iterations 0
DICPCG:  Solving for p, Initial residual = 0.103063, Final residual = 0.00262972, No Iterations 2
DICPCG:  Solving for p, Initial residual = 0.00291874, Final residual = 9.7199e-07, No Iterations 454
time step continuity errors : sum local = 1.82423e-09, global = -8.40307e-13, cumulative = -1.53038e-08
smoothSolver:  Solving for epsilon, Initial residual = 0.000118346, Final residual = 4.58439e-06, No Iterations 2
bounding epsilon, min: -4.34882e-06 max: 0.000367447 average: 7.12687e-06
smoothSolver:  Solving for k, Initial residual = 0.000145829, Final residual = 5.19749e-06, No Iterations 3
PIMPLE: converged in 9 iterations
ExecutionTime = 117.81 s  ClockTime = 118 s

Courant Number mean: 1.24817 max: 9.94926
deltaT = 0.847458
Time = 407.627

PIMPLE: iteration 1
smoothSolver:  Solving for Ux, Initial residual = 0.00336272, Final residual = 8.09627e-06, No Iterations 2
smoothSolver:  Solving for Uy, Initial residual = 0.00335433, Final residual = 8.09531e-06, No Iterations 2
smoothSolver:  Solving for Uz, Initial residual = 1.39739e-05, Final residual = 5.26563e-07, No Iterations 1
DICPCG:  Solving for p, Initial residual = 0.119537, Final residual = 0.00472676, No Iterations 2
DICPCG:  Solving for p, Initial residual = 0.0042354, Final residual = 9.54971e-07, No Iterations 458
time step continuity errors : sum local = 8.88078e-10, global = 4.65644e-12, cumulative = -1.52991e-08
PIMPLE: iteration 2
smoothSolver:  Solving for Ux, Initial residual = 0.00227028, Final residual = 5.4267e-06, No Iterations 2
smoothSolver:  Solving for Uy, Initial residual = 0.00226812, Final residual = 5.43259e-06, No Iterations 2
smoothSolver:  Solving for Uz, Initial residual = 1.59294e-05, Final residual = 4.22771e-07, No Iterations 1
DICPCG:  Solving for p, Initial residual = 0.0654883, Final residual = 0.00223401, No Iterations 2
DICPCG:  Solving for p, Initial residual = 0.0021, Final residual = 9.32649e-07, No Iterations 455
time step continuity errors : sum local = 8.7704e-10, global = 9.6614e-13, cumulative = -1.52982e-08
PIMPLE: iteration 3
smoothSolver:  Solving for Ux, Initial residual = 0.00309176, Final residual = 6.92737e-06, No Iterations 2
smoothSolver:  Solving for Uy, Initial residual = 0.00308901, Final residual = 6.92879e-06, No Iterations 2
smoothSolver:  Solving for Uz, Initial residual = 1.83261e-05, Final residual = 5.11343e-07, No Iterations 1
DICPCG:  Solving for p, Initial residual = 0.0350009, Final residual = 0.000713286, No Iterations 2
DICPCG:  Solving for p, Initial residual = 0.000690141, Final residual = 8.13103e-07, No Iterations 456
time step continuity errors : sum local = 7.63536e-10, global = 3.83135e-12, cumulative = -1.52943e-08
PIMPLE: iteration 4
smoothSolver:  Solving for Ux, Initial residual = 0.00293694, Final residual = 6.33416e-06, No Iterations 2
smoothSolver:  Solving for Uy, Initial residual = 0.00293614, Final residual = 6.33567e-06, No Iterations 2
smoothSolver:  Solving for Uz, Initial residual = 1.33836e-05, Final residual = 3.92752e-07, No Iterations 1
DICPCG:  Solving for p, Initial residual = 0.0192997, Final residual = 0.000881492, No Iterations 2
DICPCG:  Solving for p, Initial residual = 0.000867146, Final residual = 9.0286e-07, No Iterations 458
time step continuity errors : sum local = 8.41978e-10, global = 1.16519e-11, cumulative = -1.52827e-08
PIMPLE: iteration 5
smoothSolver:  Solving for Ux, Initial residual = 0.00230717, Final residual = 4.79944e-06, No Iterations 2
smoothSolver:  Solving for Uy, Initial residual = 0.00230752, Final residual = 4.80094e-06, No Iterations 2
smoothSolver:  Solving for Uz, Initial residual = 7.08989e-06, Final residual = 7.08989e-06, No Iterations 0
DICPCG:  Solving for p, Initial residual = 0.0119145, Final residual = 0.000468041, No Iterations 3
DICPCG:  Solving for p, Initial residual = 0.000464603, Final residual = 8.59012e-07, No Iterations 457
time step continuity errors : sum local = 7.94989e-10, global = 1.17964e-11, cumulative = -1.52709e-08
PIMPLE: iteration 6
smoothSolver:  Solving for Ux, Initial residual = 0.00167624, Final residual = 3.3084e-06, No Iterations 2
smoothSolver:  Solving for Uy, Initial residual = 0.00167641, Final residual = 3.31143e-06, No Iterations 2
smoothSolver:  Solving for Uz, Initial residual = 3.31178e-06, Final residual = 3.31178e-06, No Iterations 0
DICPCG:  Solving for p, Initial residual = 0.0077961, Final residual = 0.000276739, No Iterations 3
DICPCG:  Solving for p, Initial residual = 0.00027598, Final residual = 9.7741e-07, No Iterations 451
time step continuity errors : sum local = 8.99256e-10, global = 2.43023e-12, cumulative = -1.52685e-08
PIMPLE: iteration 7
smoothSolver:  Solving for Ux, Initial residual = 0.0012269, Final residual = 2.32483e-06, No Iterations 2
smoothSolver:  Solving for Uy, Initial residual = 0.00122801, Final residual = 2.32798e-06, No Iterations 2
smoothSolver:  Solving for Uz, Initial residual = 2.66419e-06, Final residual = 2.66419e-06, No Iterations 0
DICPCG:  Solving for p, Initial residual = 0.0050775, Final residual = 0.000225317, No Iterations 2
DICPCG:  Solving for p, Initial residual = 0.000225193, Final residual = 9.2e-07, No Iterations 450
time step continuity errors : sum local = 8.43386e-10, global = -6.19973e-12, cumulative = -1.52747e-08
PIMPLE: iteration 8
smoothSolver:  Solving for Ux, Initial residual = 0.000912304, Final residual = 1.77417e-06, No Iterations 2
smoothSolver:  Solving for Uy, Initial residual = 0.000913448, Final residual = 1.77463e-06, No Iterations 2
smoothSolver:  Solving for Uz, Initial residual = 2.20561e-06, Final residual = 2.20561e-06, No Iterations 0
DICPCG:  Solving for p, Initial residual = 0.00333145, Final residual = 0.000110903, No Iterations 2
DICPCG:  Solving for p, Initial residual = 0.000110938, Final residual = 8.52387e-07, No Iterations 438
time step continuity errors : sum local = 7.80059e-10, global = 1.15026e-12, cumulative = -1.52735e-08
PIMPLE: iteration 9
smoothSolver:  Solving for Ux, Initial residual = 0.00175605, Final residual = 6.07595e-06, No Iterations 7
smoothSolver:  Solving for Uy, Initial residual = 0.00175794, Final residual = 6.12375e-06, No Iterations 7
smoothSolver:  Solving for Uz, Initial residual = 4.05184e-06, Final residual = 4.05184e-06, No Iterations 0
DICPCG:  Solving for p, Initial residual = 0.103092, Final residual = 0.00261843, No Iterations 2
DICPCG:  Solving for p, Initial residual = 0.00290614, Final residual = 9.21906e-07, No Iterations 456
time step continuity errors : sum local = 1.72977e-09, global = -2.10858e-11, cumulative = -1.52946e-08
smoothSolver:  Solving for epsilon, Initial residual = 0.000117635, Final residual = 5.12951e-06, No Iterations 2
bounding epsilon, min: -2.44228e-06 max: 0.000362412 average: 7.12612e-06
smoothSolver:  Solving for k, Initial residual = 0.000141142, Final residual = 5.38895e-06, No Iterations 3
PIMPLE: converged in 9 iterations
ExecutionTime = 134.52 s  ClockTime = 135 s

Courant Number mean: 1.24817 max: 9.95495
deltaT = 0.847458
Time = 408.475

PIMPLE: iteration 1
smoothSolver:  Solving for Ux, Initial residual = 0.00338395, Final residual = 8.25785e-06, No Iterations 2
smoothSolver:  Solving for Uy, Initial residual = 0.00338712, Final residual = 8.2451e-06, No Iterations 2
smoothSolver:  Solving for Uz, Initial residual = 1.37226e-05, Final residual = 5.21405e-07, No Iterations 1
DICPCG:  Solving for p, Initial residual = 0.119691, Final residual = 0.00464089, No Iterations 2
DICPCG:  Solving for p, Initial residual = 0.00415795, Final residual = 9.34966e-07, No Iterations 459
time step continuity errors : sum local = 8.69411e-10, global = 3.09191e-12, cumulative = -1.52915e-08
PIMPLE: iteration 2
smoothSolver:  Solving for Ux, Initial residual = 0.00226366, Final residual = 5.43207e-06, No Iterations 2
smoothSolver:  Solving for Uy, Initial residual = 0.00226801, Final residual = 5.43897e-06, No Iterations 2
smoothSolver:  Solving for Uz, Initial residual = 1.57643e-05, Final residual = 4.19527e-07, No Iterations 1
DICPCG:  Solving for p, Initial residual = 0.0656264, Final residual = 0.00216438, No Iterations 2
DICPCG:  Solving for p, Initial residual = 0.00203423, Final residual = 9.65218e-07, No Iterations 452
time step continuity errors : sum local = 9.07761e-10, global = -3.05661e-12, cumulative = -1.52946e-08
PIMPLE: iteration 3
smoothSolver:  Solving for Ux, Initial residual = 0.00307204, Final residual = 6.86648e-06, No Iterations 2
smoothSolver:  Solving for Uy, Initial residual = 0.0030765, Final residual = 6.87211e-06, No Iterations 2
smoothSolver:  Solving for Uz, Initial residual = 1.82355e-05, Final residual = 5.09261e-07, No Iterations 1
DICPCG:  Solving for p, Initial residual = 0.0350317, Final residual = 0.000694874, No Iterations 2
DICPCG:  Solving for p, Initial residual = 0.000672227, Final residual = 8.11876e-07, No Iterations 455
time step continuity errors : sum local = 7.62541e-10, global = 5.05084e-12, cumulative = -1.52895e-08
PIMPLE: iteration 4
smoothSolver:  Solving for Ux, Initial residual = 0.00292407, Final residual = 6.27566e-06, No Iterations 2
smoothSolver:  Solving for Uy, Initial residual = 0.00292735, Final residual = 6.27944e-06, No Iterations 2
smoothSolver:  Solving for Uz, Initial residual = 1.33391e-05, Final residual = 3.9231e-07, No Iterations 1
DICPCG:  Solving for p, Initial residual = 0.0192543, Final residual = 0.000898917, No Iterations 2
DICPCG:  Solving for p, Initial residual = 0.000884184, Final residual = 8.95726e-07, No Iterations 456
time step continuity errors : sum local = 8.35544e-10, global = 9.2475e-12, cumulative = -1.52803e-08
PIMPLE: iteration 5
smoothSolver:  Solving for Ux, Initial residual = 0.00230056, Final residual = 4.76442e-06, No Iterations 2
smoothSolver:  Solving for Uy, Initial residual = 0.00230257, Final residual = 4.76779e-06, No Iterations 2
smoothSolver:  Solving for Uz, Initial residual = 7.06801e-06, Final residual = 7.06801e-06, No Iterations 0
DICPCG:  Solving for p, Initial residual = 0.0118615, Final residual = 0.000468276, No Iterations 3
DICPCG:  Solving for p, Initial residual = 0.000464802, Final residual = 9.90074e-07, No Iterations 451
time step continuity errors : sum local = 9.16536e-10, global = -6.71663e-12, cumulative = -1.5287e-08
PIMPLE: iteration 6
smoothSolver:  Solving for Ux, Initial residual = 0.00167324, Final residual = 3.28912e-06, No Iterations 2
smoothSolver:  Solving for Uy, Initial residual = 0.00167436, Final residual = 3.2941e-06, No Iterations 2
smoothSolver:  Solving for Uz, Initial residual = 3.29886e-06, Final residual = 3.29886e-06, No Iterations 0
DICPCG:  Solving for p, Initial residual = 0.00774053, Final residual = 0.000275758, No Iterations 3
DICPCG:  Solving for p, Initial residual = 0.00027499, Final residual = 9.4151e-07, No Iterations 446
time step continuity errors : sum local = 8.66478e-10, global = 3.99869e-13, cumulative = -1.52866e-08
PIMPLE: iteration 7
smoothSolver:  Solving for Ux, Initial residual = 0.00122309, Final residual = 2.31522e-06, No Iterations 2
smoothSolver:  Solving for Uy, Initial residual = 0.00122326, Final residual = 2.32065e-06, No Iterations 2
smoothSolver:  Solving for Uz, Initial residual = 2.65259e-06, Final residual = 2.65259e-06, No Iterations 0
DICPCG:  Solving for p, Initial residual = 0.00503896, Final residual = 0.000223067, No Iterations 2
DICPCG:  Solving for p, Initial residual = 0.000222938, Final residual = 9.55917e-07, No Iterations 443
time step continuity errors : sum local = 8.76569e-10, global = -2.99741e-12, cumulative = -1.52896e-08
PIMPLE: iteration 8
smoothSolver:  Solving for Ux, Initial residual = 0.000907458, Final residual = 1.76572e-06, No Iterations 2
smoothSolver:  Solving for Uy, Initial residual = 0.000907183, Final residual = 1.77267e-06, No Iterations 2
smoothSolver:  Solving for Uz, Initial residual = 2.20417e-06, Final residual = 2.20417e-06, No Iterations 0
DICPCG:  Solving for p, Initial residual = 0.00330999, Final residual = 0.000110559, No Iterations 2
DICPCG:  Solving for p, Initial residual = 0.000110594, Final residual = 9.05891e-07, No Iterations 445
time step continuity errors : sum local = 8.29255e-10, global = -1.07414e-11, cumulative = -1.53003e-08
PIMPLE: iteration 9
smoothSolver:  Solving for Ux, Initial residual = 0.00174416, Final residual = 6.15777e-06, No Iterations 7
smoothSolver:  Solving for Uy, Initial residual = 0.00174404, Final residual = 6.22483e-06, No Iterations 7
smoothSolver:  Solving for Uz, Initial residual = 4.07506e-06, Final residual = 4.07506e-06, No Iterations 0
DICPCG:  Solving for p, Initial residual = 0.103065, Final residual = 0.00263083, No Iterations 2
DICPCG:  Solving for p, Initial residual = 0.00291998, Final residual = 8.50701e-07, No Iterations 455
time step continuity errors : sum local = 1.59653e-09, global = -9.69785e-12, cumulative = -1.531e-08
smoothSolver:  Solving for epsilon, Initial residual = 0.000121898, Final residual = 4.81851e-06, No Iterations 2
bounding epsilon, min: -4.61774e-06 max: 0.000367849 average: 7.12661e-06
smoothSolver:  Solving for k, Initial residual = 0.000144917, Final residual = 5.20614e-06, No Iterations 3
PIMPLE: converged in 9 iterations
ExecutionTime = 155.75 s  ClockTime = 157 s

Courant Number mean: 1.24817 max: 9.94658
deltaT = 0.847458
Time = 409.322

PIMPLE: iteration 1
smoothSolver:  Solving for Ux, Initial residual = 0.00334509, Final residual = 8.08104e-06, No Iterations 2
smoothSolver:  Solving for Uy, Initial residual = 0.00334355, Final residual = 8.09212e-06, No Iterations 2
smoothSolver:  Solving for Uz, Initial residual = 1.36649e-05, Final residual = 5.2164e-07, No Iterations 1
DICPCG:  Solving for p, Initial residual = 0.119549, Final residual = 0.00472628, No Iterations 2
DICPCG:  Solving for p, Initial residual = 0.00423495, Final residual = 8.91991e-07, No Iterations 458
time step continuity errors : sum local = 8.29502e-10, global = 4.61795e-12, cumulative = -1.53054e-08
PIMPLE: iteration 2
smoothSolver:  Solving for Ux, Initial residual = 0.00226374, Final residual = 5.43784e-06, No Iterations 2
smoothSolver:  Solving for Uy, Initial residual = 0.00226302, Final residual = 5.42123e-06, No Iterations 2
smoothSolver:  Solving for Uz, Initial residual = 1.57573e-05, Final residual = 4.20213e-07, No Iterations 1
DICPCG:  Solving for p, Initial residual = 0.0655021, Final residual = 0.00223205, No Iterations 2
DICPCG:  Solving for p, Initial residual = 0.00209813, Final residual = 9.56313e-07, No Iterations 455
time step continuity errors : sum local = 8.99286e-10, global = 7.63846e-13, cumulative = -1.53046e-08
PIMPLE: iteration 3
smoothSolver:  Solving for Ux, Initial residual = 0.0030878, Final residual = 6.92763e-06, No Iterations 2
smoothSolver:  Solving for Uy, Initial residual = 0.00308641, Final residual = 6.91986e-06, No Iterations 2
smoothSolver:  Solving for Uz, Initial residual = 1.82326e-05, Final residual = 5.09635e-07, No Iterations 1
DICPCG:  Solving for p, Initial residual = 0.0350151, Final residual = 0.000713467, No Iterations 2
DICPCG:  Solving for p, Initial residual = 0.00069031, Final residual = 9.68057e-07, No Iterations 455
time step continuity errors : sum local = 9.09029e-10, global = 4.7689e-12, cumulative = -1.52999e-08
PIMPLE: iteration 4
smoothSolver:  Solving for Ux, Initial residual = 0.00293525, Final residual = 6.33685e-06, No Iterations 2
smoothSolver:  Solving for Uy, Initial residual = 0.00293358, Final residual = 6.33723e-06, No Iterations 2
smoothSolver:  Solving for Uz, Initial residual = 1.33207e-05, Final residual = 3.91461e-07, No Iterations 1
DICPCG:  Solving for p, Initial residual = 0.0193099, Final residual = 0.000885323, No Iterations 2
DICPCG:  Solving for p, Initial residual = 0.000870909, Final residual = 8.31124e-07, No Iterations 458
time step continuity errors : sum local = 7.7507e-10, global = 1.12576e-11, cumulative = -1.52886e-08
PIMPLE: iteration 5
smoothSolver:  Solving for Ux, Initial residual = 0.00230625, Final residual = 4.80419e-06, No Iterations 2
smoothSolver:  Solving for Uy, Initial residual = 0.00230547, Final residual = 4.80571e-06, No Iterations 2
smoothSolver:  Solving for Uz, Initial residual = 7.04597e-06, Final residual = 7.04597e-06, No Iterations 0
DICPCG:  Solving for p, Initial residual = 0.0119235, Final residual = 0.000468037, No Iterations 3
DICPCG:  Solving for p, Initial residual = 0.000464596, Final residual = 9.63775e-07, No Iterations 456
time step continuity errors : sum local = 8.91941e-10, global = 1.31295e-11, cumulative = -1.52755e-08
PIMPLE: iteration 6
smoothSolver:  Solving for Ux, Initial residual = 0.0016748, Final residual = 3.3115e-06, No Iterations 2
smoothSolver:  Solving for Uy, Initial residual = 0.00167457, Final residual = 3.31384e-06, No Iterations 2
smoothSolver:  Solving for Uz, Initial residual = 3.27384e-06, Final residual = 3.27384e-06, No Iterations 0
DICPCG:  Solving for p, Initial residual = 0.00780149, Final residual = 0.00027649, No Iterations 3
DICPCG:  Solving for p, Initial residual = 0.00027573, Final residual = 8.64448e-07, No Iterations 451
time step continuity errors : sum local = 7.95332e-10, global = 4.01092e-14, cumulative = -1.52754e-08
PIMPLE: iteration 7
smoothSolver:  Solving for Ux, Initial residual = 0.00122567, Final residual = 2.32563e-06, No Iterations 2
smoothSolver:  Solving for Uy, Initial residual = 0.00122609, Final residual = 2.32938e-06, No Iterations 2
smoothSolver:  Solving for Uz, Initial residual = 2.64223e-06, Final residual = 2.64223e-06, No Iterations 0
DICPCG:  Solving for p, Initial residual = 0.00508188, Final residual = 0.000225591, No Iterations 2
DICPCG:  Solving for p, Initial residual = 0.000225465, Final residual = 9.37735e-07, No Iterations 450
time step continuity errors : sum local = 8.59659e-10, global = -5.88041e-12, cumulative = -1.52813e-08
PIMPLE: iteration 8
smoothSolver:  Solving for Ux, Initial residual = 0.000911531, Final residual = 1.77417e-06, No Iterations 2
smoothSolver:  Solving for Uy, Initial residual = 0.000912089, Final residual = 1.77535e-06, No Iterations 2
smoothSolver:  Solving for Uz, Initial residual = 2.19304e-06, Final residual = 2.19304e-06, No Iterations 0
DICPCG:  Solving for p, Initial residual = 0.00333364, Final residual = 0.000111175, No Iterations 2
DICPCG:  Solving for p, Initial residual = 0.000111209, Final residual = 9.8233e-07, No Iterations 440
time step continuity errors : sum local = 8.98995e-10, global = 1.5353e-12, cumulative = -1.52798e-08
PIMPLE: iteration 9
smoothSolver:  Solving for Ux, Initial residual = 0.00175444, Final residual = 6.04377e-06, No Iterations 7
smoothSolver:  Solving for Uy, Initial residual = 0.00175482, Final residual = 6.05029e-06, No Iterations 7
smoothSolver:  Solving for Uz, Initial residual = 4.02444e-06, Final residual = 4.02444e-06, No Iterations 0
DICPCG:  Solving for p, Initial residual = 0.103095, Final residual = 0.00261836, No Iterations 2
DICPCG:  Solving for p, Initial residual = 0.00290607, Final residual = 8.18634e-07, No Iterations 455
time step continuity errors : sum local = 1.53602e-09, global = -9.37402e-12, cumulative = -1.52892e-08
smoothSolver:  Solving for epsilon, Initial residual = 0.000115687, Final residual = 4.91289e-06, No Iterations 2
bounding epsilon, min: -2.38942e-06 max: 0.000368131 average: 7.12608e-06
smoothSolver:  Solving for k, Initial residual = 0.000139911, Final residual = 5.30653e-06, No Iterations 3
PIMPLE: converged in 9 iterations
ExecutionTime = 168 s  ClockTime = 169 s

Courant Number mean: 1.24817 max: 9.94057
deltaT = 0.847458
Time = 410.169

PIMPLE: iteration 1
smoothSolver:  Solving for Ux, Initial residual = 0.0033819, Final residual = 8.23745e-06, No Iterations 2
smoothSolver:  Solving for Uy, Initial residual = 0.00338593, Final residual = 8.23772e-06, No Iterations 2
smoothSolver:  Solving for Uz, Initial residual = 1.3933e-05, Final residual = 5.26307e-07, No Iterations 1
DICPCG:  Solving for p, Initial residual = 0.119694, Final residual = 0.00464518, No Iterations 2
DICPCG:  Solving for p, Initial residual = 0.00416176, Final residual = 9.05908e-07, No Iterations 460
time step continuity errors : sum local = 8.42404e-10, global = 4.48148e-12, cumulative = -1.52847e-08
PIMPLE: iteration 2
smoothSolver:  Solving for Ux, Initial residual = 0.00226946, Final residual = 5.43399e-06, No Iterations 2
smoothSolver:  Solving for Uy, Initial residual = 0.00227254, Final residual = 5.43676e-06, No Iterations 2
smoothSolver:  Solving for Uz, Initial residual = 1.58538e-05, Final residual = 4.21277e-07, No Iterations 1
DICPCG:  Solving for p, Initial residual = 0.0656303, Final residual = 0.00216975, No Iterations 2
DICPCG:  Solving for p, Initial residual = 0.00203927, Final residual = 8.63368e-07, No Iterations 455
time step continuity errors : sum local = 8.11982e-10, global = 8.78395e-12, cumulative = -1.52759e-08
PIMPLE: iteration 3
smoothSolver:  Solving for Ux, Initial residual = 0.00307935, Final residual = 6.86874e-06, No Iterations 2
smoothSolver:  Solving for Uy, Initial residual = 0.0030818, Final residual = 6.87161e-06, No Iterations 2
smoothSolver:  Solving for Uz, Initial residual = 1.82703e-05, Final residual = 5.09859e-07, No Iterations 1
DICPCG:  Solving for p, Initial residual = 0.0350378, Final residual = 0.000703067, No Iterations 2
DICPCG:  Solving for p, Initial residual = 0.00068015, Final residual = 8.54142e-07, No Iterations 455
time step continuity errors : sum local = 8.02238e-10, global = 4.93425e-12, cumulative = -1.5271e-08
PIMPLE: iteration 4
smoothSolver:  Solving for Ux, Initial residual = 0.00292977, Final residual = 6.27395e-06, No Iterations 2
smoothSolver:  Solving for Uy, Initial residual = 0.00293207, Final residual = 6.27809e-06, No Iterations 2
smoothSolver:  Solving for Uz, Initial residual = 1.33438e-05, Final residual = 3.92215e-07, No Iterations 1
DICPCG:  Solving for p, Initial residual = 0.0192617, Final residual = 0.000901724, No Iterations 2
DICPCG:  Solving for p, Initial residual = 0.000886943, Final residual = 8.15163e-07, No Iterations 456
time step continuity errors : sum local = 7.60392e-10, global = 8.10002e-12, cumulative = -1.52629e-08
PIMPLE: iteration 5
smoothSolver:  Solving for Ux, Initial residual = 0.00230419, Final residual = 4.76042e-06, No Iterations 2
smoothSolver:  Solving for Uy, Initial residual = 0.00230593, Final residual = 4.7673e-06, No Iterations 2
smoothSolver:  Solving for Uz, Initial residual = 7.05947e-06, Final residual = 7.05947e-06, No Iterations 0
DICPCG:  Solving for p, Initial residual = 0.01187, Final residual = 0.000468973, No Iterations 3
DICPCG:  Solving for p, Initial residual = 0.000465496, Final residual = 8.27331e-07, No Iterations 453
time step continuity errors : sum local = 7.65877e-10, global = -1.8855e-12, cumulative = -1.52647e-08
PIMPLE: iteration 6
smoothSolver:  Solving for Ux, Initial residual = 0.00167461, Final residual = 3.28705e-06, No Iterations 2
smoothSolver:  Solving for Uy, Initial residual = 0.00167658, Final residual = 3.29201e-06, No Iterations 2
smoothSolver:  Solving for Uz, Initial residual = 3.27938e-06, Final residual = 3.27938e-06, No Iterations 0
DICPCG:  Solving for p, Initial residual = 0.00774718, Final residual = 0.000276504, No Iterations 3
DICPCG:  Solving for p, Initial residual = 0.000275734, Final residual = 9.29784e-07, No Iterations 449
time step continuity errors : sum local = 8.55688e-10, global = -8.16671e-12, cumulative = -1.52729e-08
PIMPLE: iteration 7
smoothSolver:  Solving for Ux, Initial residual = 0.00122372, Final residual = 2.31625e-06, No Iterations 2
smoothSolver:  Solving for Uy, Initial residual = 0.00122511, Final residual = 2.32056e-06, No Iterations 2
smoothSolver:  Solving for Uz, Initial residual = 2.64395e-06, Final residual = 2.64395e-06, No Iterations 0
DICPCG:  Solving for p, Initial residual = 0.00504304, Final residual = 0.000223385, No Iterations 2
DICPCG:  Solving for p, Initial residual = 0.000223257, Final residual = 9.94026e-07, No Iterations 446
time step continuity errors : sum local = 9.11521e-10, global = -9.55681e-12, cumulative = -1.52825e-08
PIMPLE: iteration 8
smoothSolver:  Solving for Ux, Initial residual = 0.000907872, Final residual = 1.76841e-06, No Iterations 2
smoothSolver:  Solving for Uy, Initial residual = 0.000908457, Final residual = 1.77281e-06, No Iterations 2
smoothSolver:  Solving for Uz, Initial residual = 2.20042e-06, Final residual = 2.20042e-06, No Iterations 0
DICPCG:  Solving for p, Initial residual = 0.00331304, Final residual = 0.00011073, No Iterations 2
DICPCG:  Solving for p, Initial residual = 0.000110765, Final residual = 9.95248e-07, No Iterations 431
time step continuity errors : sum local = 9.11061e-10, global = -1.44797e-11, cumulative = -1.5297e-08
PIMPLE: iteration 9
smoothSolver:  Solving for Ux, Initial residual = 0.00174464, Final residual = 6.15153e-06, No Iterations 7
smoothSolver:  Solving for Uy, Initial residual = 0.00174586, Final residual = 6.18762e-06, No Iterations 7
smoothSolver:  Solving for Uz, Initial residual = 4.06721e-06, Final residual = 4.06721e-06, No Iterations 0
DICPCG:  Solving for p, Initial residual = 0.103069, Final residual = 0.00263133, No Iterations 2
DICPCG:  Solving for p, Initial residual = 0.00292054, Final residual = 9.1498e-07, No Iterations 454
time step continuity errors : sum local = 1.71717e-09, global = 2.20236e-12, cumulative = -1.52947e-08
smoothSolver:  Solving for epsilon, Initial residual = 0.000124082, Final residual = 4.79354e-06, No Iterations 2
bounding epsilon, min: -3.3521e-06 max: 0.000367445 average: 7.12719e-06
smoothSolver:  Solving for k, Initial residual = 0.000145692, Final residual = 5.17408e-06, No Iterations 3
PIMPLE: converged in 9 iterations
ExecutionTime = 178.3 s  ClockTime = 179 s

Courant Number mean: 1.24817 max: 9.9466
deltaT = 0.847458
Time = 411.017

PIMPLE: iteration 1
smoothSolver:  Solving for Ux, Initial residual = 0.00333295, Final residual = 8.08264e-06, No Iterations 2
smoothSolver:  Solving for Uy, Initial residual = 0.00333543, Final residual = 8.0926e-06, No Iterations 2
smoothSolver:  Solving for Uz, Initial residual = 1.35709e-05, Final residual = 5.20508e-07, No Iterations 1
DICPCG:  Solving for p, Initial residual = 0.119546, Final residual = 0.00472411, No Iterations 2
DICPCG:  Solving for p, Initial residual = 0.00423304, Final residual = 9.47822e-07, No Iterations 458
time step continuity errors : sum local = 8.81421e-10, global = 4.32412e-12, cumulative = -1.52904e-08
PIMPLE: iteration 2
smoothSolver:  Solving for Ux, Initial residual = 0.00226007, Final residual = 5.44271e-06, No Iterations 2
smoothSolver:  Solving for Uy, Initial residual = 0.00226299, Final residual = 5.44778e-06, No Iterations 2
smoothSolver:  Solving for Uz, Initial residual = 1.57083e-05, Final residual = 4.19658e-07, No Iterations 1
DICPCG:  Solving for p, Initial residual = 0.0655072, Final residual = 0.00223098, No Iterations 2
DICPCG:  Solving for p, Initial residual = 0.00209713, Final residual = 7.9415e-07, No Iterations 456
time step continuity errors : sum local = 7.4678e-10, global = 1.38912e-12, cumulative = -1.5289e-08
PIMPLE: iteration 3
smoothSolver:  Solving for Ux, Initial residual = 0.00308675, Final residual = 6.93203e-06, No Iterations 2
smoothSolver:  Solving for Uy, Initial residual = 0.00308717, Final residual = 6.94035e-06, No Iterations 2
smoothSolver:  Solving for Uz, Initial residual = 1.82015e-05, Final residual = 5.09735e-07, No Iterations 1
DICPCG:  Solving for p, Initial residual = 0.0350206, Final residual = 0.000716414, No Iterations 2
DICPCG:  Solving for p, Initial residual = 0.000693163, Final residual = 8.13615e-07, No Iterations 456
time step continuity errors : sum local = 7.63986e-10, global = 3.96825e-12, cumulative = -1.52851e-08
PIMPLE: iteration 4
smoothSolver:  Solving for Ux, Initial residual = 0.00293607, Final residual = 6.33685e-06, No Iterations 2
smoothSolver:  Solving for Uy, Initial residual = 0.00293662, Final residual = 6.34709e-06, No Iterations 2
[...]
smoothSolver:  Solving for Ux, Initial residual = 0.00292111, Final residual = 6.23133e-06, No Iterations 2
smoothSolver:  Solving for Uy, Initial residual = 0.00291955, Final residual = 6.23713e-06, No Iterations 2
smoothSolver:  Solving for Uz, Initial residual = 1.32213e-05, Final residual = 3.89313e-07, No Iterations 1
DICPCG:  Solving for p, Initial residual = 0.0191965, Final residual = 0.000894206, No Iterations 2
DICPCG:  Solving for p, Initial residual = 0.000879557, Final residual = 9.95597e-07, No Iterations 456
time step continuity errors : sum local = 9.28767e-10, global = 1.09738e-11, cumulative = -1.43109e-08
PIMPLE: iteration 5
smoothSolver:  Solving for Ux, Initial residual = 0.00229726, Final residual = 4.73153e-06, No Iterations 2
smoothSolver:  Solving for Uy, Initial residual = 0.00229744, Final residual = 4.73776e-06, No Iterations 2
smoothSolver:  Solving for Uz, Initial residual = 6.95582e-06, Final residual = 6.95582e-06, No Iterations 0
DICPCG:  Solving for p, Initial residual = 0.0118381, Final residual = 0.000464981, No Iterations 3
DICPCG:  Solving for p, Initial residual = 0.000461535, Final residual = 9.94555e-07, No Iterations 453
time step continuity errors : sum local = 9.20792e-10, global = 3.26694e-12, cumulative = -1.43076e-08
PIMPLE: iteration 6
smoothSolver:  Solving for Ux, Initial residual = 0.00166885, Final residual = 3.26207e-06, No Iterations 2
smoothSolver:  Solving for Uy, Initial residual = 0.00166929, Final residual = 3.26909e-06, No Iterations 2
smoothSolver:  Solving for Uz, Initial residual = 3.1372e-06, Final residual = 3.1372e-06, No Iterations 0
DICPCG:  Solving for p, Initial residual = 0.00773473, Final residual = 0.000273464, No Iterations 3
DICPCG:  Solving for p, Initial residual = 0.000272702, Final residual = 8.39486e-07, No Iterations 447
time step continuity errors : sum local = 7.72727e-10, global = -2.99112e-12, cumulative = -1.43106e-08
PIMPLE: iteration 7
smoothSolver:  Solving for Ux, Initial residual = 0.00121935, Final residual = 2.29725e-06, No Iterations 2
smoothSolver:  Solving for Uy, Initial residual = 0.00121956, Final residual = 2.30116e-06, No Iterations 2
smoothSolver:  Solving for Uz, Initial residual = 2.58829e-06, Final residual = 2.58829e-06, No Iterations 0
DICPCG:  Solving for p, Initial residual = 0.00503443, Final residual = 0.000221683, No Iterations 2
DICPCG:  Solving for p, Initial residual = 0.000221556, Final residual = 9.1886e-07, No Iterations 449
time step continuity errors : sum local = 8.42789e-10, global = -2.07777e-12, cumulative = -1.43127e-08
PIMPLE: iteration 8
smoothSolver:  Solving for Ux, Initial residual = 0.000904444, Final residual = 1.7572e-06, No Iterations 2
smoothSolver:  Solving for Uy, Initial residual = 0.000904498, Final residual = 1.76095e-06, No Iterations 2
smoothSolver:  Solving for Uz, Initial residual = 2.17034e-06, Final residual = 2.17034e-06, No Iterations 0
DICPCG:  Solving for p, Initial residual = 0.00330609, Final residual = 0.000110671, No Iterations 2
DICPCG:  Solving for p, Initial residual = 0.000110705, Final residual = 9.97921e-07, No Iterations 434
time step continuity errors : sum local = 9.13752e-10, global = -6.58937e-12, cumulative = -1.43192e-08
PIMPLE: iteration 9
smoothSolver:  Solving for Ux, Initial residual = 0.00173963, Final residual = 6.05805e-06, No Iterations 7
smoothSolver:  Solving for Uy, Initial residual = 0.00173946, Final residual = 6.07037e-06, No Iterations 7
smoothSolver:  Solving for Uz, Initial residual = 3.9848e-06, Final residual = 3.9848e-06, No Iterations 0
DICPCG:  Solving for p, Initial residual = 0.103017, Final residual = 0.00263012, No Iterations 2
DICPCG:  Solving for p, Initial residual = 0.00291905, Final residual = 9.55326e-07, No Iterations 457
time step continuity errors : sum local = 1.79356e-09, global = -1.62282e-11, cumulative = -1.43355e-08
smoothSolver:  Solving for epsilon, Initial residual = 0.000121885, Final residual = 4.51848e-06, No Iterations 2
bounding epsilon, min: -2.33155e-06 max: 0.000349622 average: 7.12287e-06
smoothSolver:  Solving for k, Initial residual = 0.000110082, Final residual = 7.84093e-06, No Iterations 2
PIMPLE: converged in 9 iterations
ExecutionTime = 680.02 s  ClockTime = 684 s

Courant Number mean: 1.24817 max: 9.94156
deltaT = 0.847458
Time = 453.39

PIMPLE: iteration 1
smoothSolver:  Solving for Ux, Initial residual = 0.00332356, Final residual = 8.00448e-06, No Iterations 2
smoothSolver:  Solving for Uy, Initial residual = 0.00331825, Final residual = 8.0106e-06, No Iterations 2
smoothSolver:  Solving for Uz, Initial residual = 1.34266e-05, Final residual = 5.18674e-07, No Iterations 1
DICPCG:  Solving for p, Initial residual = 0.119463, Final residual = 0.00472358, No Iterations 2
DICPCG:  Solving for p, Initial residual = 0.00423275, Final residual = 9.52037e-07, No Iterations 459
time step continuity errors : sum local = 8.85577e-10, global = 3.35948e-12, cumulative = -1.43321e-08
PIMPLE: iteration 2
smoothSolver:  Solving for Ux, Initial residual = 0.00224977, Final residual = 5.38067e-06, No Iterations 2
smoothSolver:  Solving for Uy, Initial residual = 0.00224848, Final residual = 5.37413e-06, No Iterations 2
smoothSolver:  Solving for Uz, Initial residual = 1.5559e-05, Final residual = 4.14805e-07, No Iterations 1
DICPCG:  Solving for p, Initial residual = 0.0654233, Final residual = 0.0022327, No Iterations 2
DICPCG:  Solving for p, Initial residual = 0.00209884, Final residual = 9.77036e-07, No Iterations 455
time step continuity errors : sum local = 9.18874e-10, global = 4.25784e-12, cumulative = -1.43279e-08
PIMPLE: iteration 3
smoothSolver:  Solving for Ux, Initial residual = 0.00307395, Final residual = 6.88442e-06, No Iterations 2
smoothSolver:  Solving for Uy, Initial residual = 0.00307175, Final residual = 6.88017e-06, No Iterations 2
smoothSolver:  Solving for Uz, Initial residual = 1.80522e-05, Final residual = 5.04455e-07, No Iterations 1
DICPCG:  Solving for p, Initial residual = 0.0349473, Final residual = 0.000716086, No Iterations 2
DICPCG:  Solving for p, Initial residual = 0.000692867, Final residual = 8.3929e-07, No Iterations 456
time step continuity errors : sum local = 7.8813e-10, global = 4.40117e-12, cumulative = -1.43235e-08
PIMPLE: iteration 4
smoothSolver:  Solving for Ux, Initial residual = 0.00292309, Final residual = 6.29391e-06, No Iterations 2
smoothSolver:  Solving for Uy, Initial residual = 0.00292105, Final residual = 6.29358e-06, No Iterations 2
smoothSolver:  Solving for Uz, Initial residual = 1.31662e-05, Final residual = 3.87435e-07, No Iterations 1
DICPCG:  Solving for p, Initial residual = 0.0192627, Final residual = 0.000886348, No Iterations 2
DICPCG:  Solving for p, Initial residual = 0.00087194, Final residual = 8.4912e-07, No Iterations 458
time step continuity errors : sum local = 7.91856e-10, global = 1.10766e-11, cumulative = -1.43124e-08
PIMPLE: iteration 5
smoothSolver:  Solving for Ux, Initial residual = 0.00229626, Final residual = 4.76451e-06, No Iterations 2
smoothSolver:  Solving for Uy, Initial residual = 0.00229538, Final residual = 4.76559e-06, No Iterations 2
smoothSolver:  Solving for Uz, Initial residual = 6.91822e-06, Final residual = 6.91822e-06, No Iterations 0
DICPCG:  Solving for p, Initial residual = 0.0118901, Final residual = 0.000465526, No Iterations 3
DICPCG:  Solving for p, Initial residual = 0.000462111, Final residual = 9.75814e-07, No Iterations 456
time step continuity errors : sum local = 9.03132e-10, global = 1.23414e-11, cumulative = -1.43e-08
PIMPLE: iteration 6
smoothSolver:  Solving for Ux, Initial residual = 0.00166739, Final residual = 3.28417e-06, No Iterations 2
smoothSolver:  Solving for Uy, Initial residual = 0.00166724, Final residual = 3.28287e-06, No Iterations 2
smoothSolver:  Solving for Uz, Initial residual = 3.11154e-06, Final residual = 3.11154e-06, No Iterations 0
DICPCG:  Solving for p, Initial residual = 0.00778488, Final residual = 0.000275124, No Iterations 3
DICPCG:  Solving for p, Initial residual = 0.000274372, Final residual = 9.5635e-07, No Iterations 450
time step continuity errors : sum local = 8.79984e-10, global = -5.57911e-12, cumulative = -1.43056e-08
PIMPLE: iteration 7
smoothSolver:  Solving for Ux, Initial residual = 0.00121991, Final residual = 2.31081e-06, No Iterations 2
smoothSolver:  Solving for Uy, Initial residual = 0.00122021, Final residual = 2.30987e-06, No Iterations 2
smoothSolver:  Solving for Uz, Initial residual = 2.57936e-06, Final residual = 2.57936e-06, No Iterations 0
DICPCG:  Solving for p, Initial residual = 0.00507028, Final residual = 0.000225526, No Iterations 2
DICPCG:  Solving for p, Initial residual = 0.000225404, Final residual = 9.55825e-07, No Iterations 440
time step continuity errors : sum local = 8.76383e-10, global = 1.23021e-11, cumulative = -1.42933e-08
PIMPLE: iteration 8
smoothSolver:  Solving for Ux, Initial residual = 0.000906598, Final residual = 1.76336e-06, No Iterations 2
smoothSolver:  Solving for Uy, Initial residual = 0.00090734, Final residual = 1.76395e-06, No Iterations 2
smoothSolver:  Solving for Uz, Initial residual = 2.16639e-06, Final residual = 2.16639e-06, No Iterations 0
DICPCG:  Solving for p, Initial residual = 0.00332505, Final residual = 0.000111609, No Iterations 2
DICPCG:  Solving for p, Initial residual = 0.000111644, Final residual = 9.58788e-07, No Iterations 449
time step continuity errors : sum local = 8.77621e-10, global = -1.60644e-13, cumulative = -1.42935e-08
PIMPLE: iteration 9
smoothSolver:  Solving for Ux, Initial residual = 0.00174353, Final residual = 6.00487e-06, No Iterations 7
smoothSolver:  Solving for Uy, Initial residual = 0.00174545, Final residual = 5.99676e-06, No Iterations 7
smoothSolver:  Solving for Uz, Initial residual = 3.94539e-06, Final residual = 3.94539e-06, No Iterations 0
DICPCG:  Solving for p, Initial residual = 0.103046, Final residual = 0.00261816, No Iterations 2
DICPCG:  Solving for p, Initial residual = 0.00290573, Final residual = 9.80394e-07, No Iterations 454
time step continuity errors : sum local = 1.84008e-09, global = 1.35287e-11, cumulative = -1.42799e-08
smoothSolver:  Solving for epsilon, Initial residual = 0.000118922, Final residual = 4.72054e-06, No Iterations 2
bounding epsilon, min: -6.47982e-06 max: 0.000347593 average: 7.12218e-06
smoothSolver:  Solving for k, Initial residual = 0.000107846, Final residual = 7.82422e-06, No Iterations 2
PIMPLE: converged in 9 iterations
ExecutionTime = 689.94 s  ClockTime = 694 s

Courant Number mean: 1.24817 max: 9.93986
deltaT = 0.847458
Time = 454.237

PIMPLE: iteration 1
smoothSolver:  Solving for Ux, Initial residual = 0.00339015, Final residual = 8.1744e-06, No Iterations 2
smoothSolver:  Solving for Uy, Initial residual = 0.00343734, Final residual = 8.18553e-06, No Iterations 2
smoothSolver:  Solving for Uz, Initial residual = 1.46484e-05, Final residual = 5.4234e-07, No Iterations 1
DICPCG:  Solving for p, Initial residual = 0.119643, Final residual = 0.00464668, No Iterations 2
DICPCG:  Solving for p, Initial residual = 0.00416323, Final residual = 7.49875e-07, No Iterations 461
time step continuity errors : sum local = 6.97476e-10, global = 5.5612e-12, cumulative = -1.42744e-08
PIMPLE: iteration 2
smoothSolver:  Solving for Ux, Initial residual = 0.00226133, Final residual = 5.38212e-06, No Iterations 2
smoothSolver:  Solving for Uy, Initial residual = 0.00228874, Final residual = 5.39019e-06, No Iterations 2
smoothSolver:  Solving for Uz, Initial residual = 1.60574e-05, Final residual = 4.25054e-07, No Iterations 1
DICPCG:  Solving for p, Initial residual = 0.0655836, Final residual = 0.00217287, No Iterations 2
DICPCG:  Solving for p, Initial residual = 0.0020422, Final residual = 8.02985e-07, No Iterations 459
time step continuity errors : sum local = 7.55316e-10, global = 4.96149e-12, cumulative = -1.42694e-08
PIMPLE: iteration 3
smoothSolver:  Solving for Ux, Initial residual = 0.00307308, Final residual = 6.81163e-06, No Iterations 2
smoothSolver:  Solving for Uy, Initial residual = 0.0030834, Final residual = 6.81847e-06, No Iterations 2
smoothSolver:  Solving for Uz, Initial residual = 1.82716e-05, Final residual = 5.09236e-07, No Iterations 1
DICPCG:  Solving for p, Initial residual = 0.0349766, Final residual = 0.000702923, No Iterations 2
DICPCG:  Solving for p, Initial residual = 0.000680007, Final residual = 8.94112e-07, No Iterations 455
time step continuity errors : sum local = 8.39864e-10, global = 5.0033e-12, cumulative = -1.42644e-08
PIMPLE: iteration 4
smoothSolver:  Solving for Ux, Initial residual = 0.00292679, Final residual = 6.23212e-06, No Iterations 2
smoothSolver:  Solving for Uy, Initial residual = 0.00293303, Final residual = 6.23805e-06, No Iterations 2
smoothSolver:  Solving for Uz, Initial residual = 1.32886e-05, Final residual = 3.90568e-07, No Iterations 1
DICPCG:  Solving for p, Initial residual = 0.0191922, Final residual = 0.000902852, No Iterations 2
DICPCG:  Solving for p, Initial residual = 0.000888052, Final residual = 9.12707e-07, No Iterations 456
time step continuity errors : sum local = 8.51467e-10, global = 9.21792e-12, cumulative = -1.42552e-08
PIMPLE: iteration 5
smoothSolver:  Solving for Ux, Initial residual = 0.00230192, Final residual = 4.72941e-06, No Iterations 2
smoothSolver:  Solving for Uy, Initial residual = 0.00230854, Final residual = 4.73497e-06, No Iterations 2
smoothSolver:  Solving for Uz, Initial residual = 6.99915e-06, Final residual = 6.99915e-06, No Iterations 0
DICPCG:  Solving for p, Initial residual = 0.011834, Final residual = 0.00046968, No Iterations 3
DICPCG:  Solving for p, Initial residual = 0.000466197, Final residual = 8.53009e-07, No Iterations 452
time step continuity errors : sum local = 7.89766e-10, global = 2.34971e-12, cumulative = -1.42529e-08
PIMPLE: iteration 6
smoothSolver:  Solving for Ux, Initial residual = 0.00167265, Final residual = 3.25876e-06, No Iterations 2
smoothSolver:  Solving for Uy, Initial residual = 0.00167875, Final residual = 3.26279e-06, No Iterations 2
smoothSolver:  Solving for Uz, Initial residual = 3.16866e-06, Final residual = 3.16866e-06, No Iterations 0
DICPCG:  Solving for p, Initial residual = 0.00773292, Final residual = 0.000276546, No Iterations 3
DICPCG:  Solving for p, Initial residual = 0.000275776, Final residual = 9.82673e-07, No Iterations 448
time step continuity errors : sum local = 9.04552e-10, global = -3.63996e-12, cumulative = -1.42565e-08
PIMPLE: iteration 7
smoothSolver:  Solving for Ux, Initial residual = 0.00122182, Final residual = 2.29428e-06, No Iterations 2
smoothSolver:  Solving for Uy, Initial residual = 0.00122762, Final residual = 2.29862e-06, No Iterations 2
smoothSolver:  Solving for Uz, Initial residual = 2.6188e-06, Final residual = 2.6188e-06, No Iterations 0
DICPCG:  Solving for p, Initial residual = 0.00503536, Final residual = 0.000223343, No Iterations 2
DICPCG:  Solving for p, Initial residual = 0.000223214, Final residual = 8.46525e-07, No Iterations 440
time step continuity errors : sum local = 7.76463e-10, global = 5.73177e-12, cumulative = -1.42508e-08
PIMPLE: iteration 8
smoothSolver:  Solving for Ux, Initial residual = 0.000906715, Final residual = 1.75625e-06, No Iterations 2
smoothSolver:  Solving for Uy, Initial residual = 0.000911514, Final residual = 1.75991e-06, No Iterations 2
smoothSolver:  Solving for Uz, Initial residual = 2.19729e-06, Final residual = 2.19729e-06, No Iterations 0
DICPCG:  Solving for p, Initial residual = 0.00330734, Final residual = 0.000111109, No Iterations 2
DICPCG:  Solving for p, Initial residual = 0.000111144, Final residual = 9.00644e-07, No Iterations 432
time step continuity errors : sum local = 8.24703e-10, global = -4.95999e-12, cumulative = -1.42557e-08
PIMPLE: iteration 9
smoothSolver:  Solving for Ux, Initial residual = 0.00174614, Final residual = 6.05034e-06, No Iterations 7
smoothSolver:  Solving for Uy, Initial residual = 0.0017566, Final residual = 6.15655e-06, No Iterations 7
smoothSolver:  Solving for Uz, Initial residual = 4.04938e-06, Final residual = 4.04938e-06, No Iterations 0
DICPCG:  Solving for p, Initial residual = 0.103016, Final residual = 0.0026319, No Iterations 2
DICPCG:  Solving for p, Initial residual = 0.00292102, Final residual = 9.00182e-07, No Iterations 454
time step continuity errors : sum local = 1.69009e-09, global = 1.56108e-12, cumulative = -1.42542e-08
smoothSolver:  Solving for epsilon, Initial residual = 0.00014101, Final residual = 5.28304e-06, No Iterations 2
bounding epsilon, min: -3.33321e-06 max: 0.000349706 average: 7.1229e-06
smoothSolver:  Solving for k, Initial residual = 0.000111097, Final residual = 8.05718e-06, No Iterations 2
PIMPLE: converged in 9 iterations
ExecutionTime = 699.92 s  ClockTime = 704 s

Courant Number mean: 1.24817 max: 9.94338
deltaT = 0.847458
Time = 455.085

PIMPLE: iteration 1
smoothSolver:  Solving for Ux, Initial residual = 0.00333005, Final residual = 8.04124e-06, No Iterations 2
smoothSolver:  Solving for Uy, Initial residual = 0.00332427, Final residual = 8.02561e-06, No Iterations 2
smoothSolver:  Solving for Uz, Initial residual = 1.36593e-05, Final residual = 5.29369e-07, No Iterations 1
DICPCG:  Solving for p, Initial residual = 0.119459, Final residual = 0.00473239, No Iterations 2
DICPCG:  Solving for p, Initial residual = 0.00424068, Final residual = 9.34181e-07, No Iterations 460
time step continuity errors : sum local = 8.68982e-10, global = 2.28716e-12, cumulative = -1.42519e-08
PIMPLE: iteration 2
smoothSolver:  Solving for Ux, Initial residual = 0.00225622, Final residual = 5.39742e-06, No Iterations 2
smoothSolver:  Solving for Uy, Initial residual = 0.00225445, Final residual = 5.38742e-06, No Iterations 2
smoothSolver:  Solving for Uz, Initial residual = 1.56513e-05, Final residual = 4.1996e-07, No Iterations 1
DICPCG:  Solving for p, Initial residual = 0.0654212, Final residual = 0.00224252, No Iterations 2
DICPCG:  Solving for p, Initial residual = 0.00210807, Final residual = 7.97106e-07, No Iterations 457
time step continuity errors : sum local = 7.49669e-10, global = 3.10318e-12, cumulative = -1.42488e-08
PIMPLE: iteration 3
smoothSolver:  Solving for Ux, Initial residual = 0.00308009, Final residual = 6.89548e-06, No Iterations 2
smoothSolver:  Solving for Uy, Initial residual = 0.0030794, Final residual = 6.90037e-06, No Iterations 2
smoothSolver:  Solving for Uz, Initial residual = 1.80883e-05, Final residual = 5.07347e-07, No Iterations 1
DICPCG:  Solving for p, Initial residual = 0.0349471, Final residual = 0.000723138, No Iterations 2
DICPCG:  Solving for p, Initial residual = 0.000699691, Final residual = 8.19346e-07, No Iterations 456
time step continuity errors : sum local = 7.69414e-10, global = 4.5954e-12, cumulative = -1.42442e-08
PIMPLE: iteration 4
smoothSolver:  Solving for Ux, Initial residual = 0.00292863, Final residual = 6.30096e-06, No Iterations 2
smoothSolver:  Solving for Uy, Initial residual = 0.00292893, Final residual = 6.31431e-06, No Iterations 2
smoothSolver:  Solving for Uz, Initial residual = 1.31823e-05, Final residual = 3.89161e-07, No Iterations 1
DICPCG:  Solving for p, Initial residual = 0.0192637, Final residual = 0.000887387, No Iterations 2
DICPCG:  Solving for p, Initial residual = 0.000872964, Final residual = 8.08587e-07, No Iterations 458
time step continuity errors : sum local = 7.54068e-10, global = 1.0574e-11, cumulative = -1.42336e-08
PIMPLE: iteration 5
smoothSolver:  Solving for Ux, Initial residual = 0.00230151, Final residual = 4.7724e-06, No Iterations 2
smoothSolver:  Solving for Uy, Initial residual = 0.00230123, Final residual = 4.78586e-06, No Iterations 2
smoothSolver:  Solving for Uz, Initial residual = 6.93e-06, Final residual = 6.93e-06, No Iterations 0
DICPCG:  Solving for p, Initial residual = 0.0118919, Final residual = 0.000469221, No Iterations 3
