/*---------------------------------------------------------------------------*\
| =========                 |                                                 |
| \\      /  F ield         | OpenFOAM: The Open Source CFD Toolbox           |
|  \\    /   O peration     | Version:  v1906                                 |
|   \\  /    A nd           | Web:      www.OpenFOAM.com                      |
|    \\/     M anipulation  |                                                 |
\*---------------------------------------------------------------------------*/
Build  : v1906 OPENFOAM=1906
Arch   : "LSB;label=32;scalar=64"
Exec   : reconstructParMesh -constant -mergeTol 1E-06
Date   : Feb 04 2020
Time   : 17:50:58
Host   : LAPTOP-FK3MEHTI
PID    : 1632
I/O    : uncollated
Case   : /home/theodore_ong/GitHub_OpenFoam_workspace/thin_pipeflow_snappyHexMesh/pimpleFoam_snappyPipe
nProcs : 1
trapFpe: Floating point exception trapping enabled (FOAM_SIGFPE).
fileModificationChecking : Monitoring run-time modified files using timeStampMaster (fileModificationSkew 10)
allowSystemOperations : Allowing user-supplied system call operations

// * * * * * * * * * * * * * * * * * * * * * * * * * * * * * * * * * * * * * //
Create time

This is an experimental tool which tries to merge individual processor
meshes back into one master mesh. Use it if the original master mesh has
been deleted or if the processor meshes have been modified (topology change).
This tool will write the resulting mesh to a new time step and construct
xxxxProcAddressing files in the processor meshes so reconstructPar can be
used to regenerate the fields on the master mesh.

Not well tested & use at your own risk!

Merge tolerance : 1e-06
Write tolerance : 1e-06
Doing geometric matching on correct procBoundaries only.
This assumes a correct decomposition.
Found 4 processor directories

Reading database "pimpleFoam_snappyPipe/processor0"
Reading database "pimpleFoam_snappyPipe/processor1"
Reading database "pimpleFoam_snappyPipe/processor2"
Reading database "pimpleFoam_snappyPipe/processor3"
Time = constant

Reading points from "pimpleFoam_snappyPipe/processor0" for time = constant

Reading points from "pimpleFoam_snappyPipe/processor1" for time = constant

Reading points from "pimpleFoam_snappyPipe/processor2" for time = constant

Reading points from "pimpleFoam_snappyPipe/processor3" for time = constant

Overall mesh bounding box  : (-0.5 -0.500002 -1.90735e-06) (0.5 0.499997 40)
Relative tolerance         : 1e-06
Absolute matching distance : 4.0025e-05

Merging mesh 0 with 1
Merging mesh 2 with 3
Merging mesh 0 with 2
Reading mesh to add from "pimpleFoam_snappyPipe/processor0" for time = constant


Reading mesh to add from "pimpleFoam_snappyPipe/processor1" for time = constant


Reading mesh to add from "pimpleFoam_snappyPipe/processor2" for time = constant


Reading mesh to add from "pimpleFoam_snappyPipe/processor3" for time = constant


mergeSharedPoints : detected 0 points that are to be merged.

Writing merged mesh to "/home/theodore_ong/GitHub_OpenFoam_workspace/thin_pipeflow_snappyHexMesh/pimpleFoam_snappyPipe/constant"

Reconstructing the addressing from the processor meshes to the newly reconstructed mesh

Reading processor 0 mesh from "pimpleFoam_snappyPipe/processor0"
Writing pointProcAddressing to "pimpleFoam_snappyPipe/processor0/constant/polyMesh"
Writing faceProcAddressing to "pimpleFoam_snappyPipe/processor0/constant/polyMesh"
Writing cellProcAddressing to "pimpleFoam_snappyPipe/processor0/constant/polyMesh"
Writing boundaryProcAddressing to "pimpleFoam_snappyPipe/processor0/constant/polyMesh"

Reading processor 1 mesh from "pimpleFoam_snappyPipe/processor1"
Writing pointProcAddressing to "pimpleFoam_snappyPipe/processor1/constant/polyMesh"
Writing faceProcAddressing to "pimpleFoam_snappyPipe/processor1/constant/polyMesh"
Writing cellProcAddressing to "pimpleFoam_snappyPipe/processor1/constant/polyMesh"
Writing boundaryProcAddressing to "pimpleFoam_snappyPipe/processor1/constant/polyMesh"

Reading processor 2 mesh from "pimpleFoam_snappyPipe/processor2"
Writing pointProcAddressing to "pimpleFoam_snappyPipe/processor2/constant/polyMesh"
Writing faceProcAddressing to "pimpleFoam_snappyPipe/processor2/constant/polyMesh"
Writing cellProcAddressing to "pimpleFoam_snappyPipe/processor2/constant/polyMesh"
Writing boundaryProcAddressing to "pimpleFoam_snappyPipe/processor2/constant/polyMesh"

Reading processor 3 mesh from "pimpleFoam_snappyPipe/processor3"
Writing pointProcAddressing to "pimpleFoam_snappyPipe/processor3/constant/polyMesh"
Writing faceProcAddressing to "pimpleFoam_snappyPipe/processor3/constant/polyMesh"
Writing cellProcAddressing to "pimpleFoam_snappyPipe/processor3/constant/polyMesh"
Writing boundaryProcAddressing to "pimpleFoam_snappyPipe/processor3/constant/polyMesh"


End

